
  Marvin  08031817322D          

 29 32  0  0  1  0            999 V2000
    2.0129    3.7637    0.0000 O   0  0  0  0  0  0  0  0  0  0  0  0
    1.2059    3.5921    0.0000 C   0  0  0  0  0  0  0  0  0  0  0  0
    0.6539    4.2052    0.0000 O   0  0  0  0  0  0  0  0  0  0  0  0
    0.9510    2.8075    0.0000 C   0  0  0  0  0  0  0  0  0  0  0  0
    1.5030    2.1944    0.0000 C   0  0  0  0  0  0  0  0  0  0  0  0
    1.2481    1.4098    0.0000 N   0  0  0  0  0  0  0  0  0  0  0  0
    0.4634    1.1549    0.0000 C   0  0  0  0  0  0  0  0  0  0  0  0
    0.4634    0.3299    0.0000 C   0  0  0  0  0  0  0  0  0  0  0  0
   -0.2510   -0.0826    0.0000 C   0  0  0  0  0  0  0  0  0  0  0  0
   -0.9655    0.3299    0.0000 C   0  0  1  0  0  0  0  0  0  0  0  0
   -0.9655    1.1549    0.0000 C   0  0  0  0  0  0  0  0  0  0  0  0
   -0.2510    1.5674    0.0000 C   0  0  0  0  0  0  0  0  0  0  0  0
   -1.6800   -0.0826    0.0000 N   0  0  0  0  0  0  0  0  0  0  0  0
   -1.6800   -0.9076    0.0000 S   0  0  0  0  0  0  0  0  0  0  0  0
   -0.8550   -0.9076    0.0000 O   0  0  0  0  0  0  0  0  0  0  0  0
   -2.5050   -0.9076    0.0000 O   0  0  0  0  0  0  0  0  0  0  0  0
   -1.6800   -1.7326    0.0000 C   0  0  0  0  0  0  0  0  0  0  0  0
   -2.3944   -2.1451    0.0000 C   0  0  0  0  0  0  0  0  0  0  0  0
   -2.3944   -2.9701    0.0000 C   0  0  0  0  0  0  0  0  0  0  0  0
   -1.6800   -3.3826    0.0000 C   0  0  0  0  0  0  0  0  0  0  0  0
   -1.6800   -4.2076    0.0000 F   0  0  0  0  0  0  0  0  0  0  0  0
   -0.9655   -2.9701    0.0000 C   0  0  0  0  0  0  0  0  0  0  0  0
   -0.9655   -2.1451    0.0000 C   0  0  0  0  0  0  0  0  0  0  0  0
    1.2481    0.0749    0.0000 C   0  0  0  0  0  0  0  0  0  0  0  0
    1.5836   -0.6788    0.0000 C   0  0  0  0  0  0  0  0  0  0  0  0
    2.4041   -0.7650    0.0000 C   0  0  0  0  0  0  0  0  0  0  0  0
    2.8890   -0.0976    0.0000 C   0  0  0  0  0  0  0  0  0  0  0  0
    2.5535    0.6561    0.0000 C   0  0  0  0  0  0  0  0  0  0  0  0
    1.7330    0.7424    0.0000 C   0  0  0  0  0  0  0  0  0  0  0  0
  1  2  1  0  0  0  0
  2  3  2  0  0  0  0
  2  4  1  0  0  0  0
  4  5  1  0  0  0  0
  5  6  1  0  0  0  0
  6  7  1  0  0  0  0
  7  8  2  0  0  0  0
  8  9  1  0  0  0  0
  9 10  1  0  0  0  0
 10 11  1  0  0  0  0
 11 12  1  0  0  0  0
  7 12  1  0  0  0  0
 10 13  1  6  0  0  0
 13 14  1  0  0  0  0
 14 15  2  0  0  0  0
 14 16  2  0  0  0  0
 14 17  1  0  0  0  0
 17 18  1  0  0  0  0
 18 19  2  0  0  0  0
 19 20  1  0  0  0  0
 20 21  1  0  0  0  0
 20 22  2  0  0  0  0
 22 23  1  0  0  0  0
 17 23  2  0  0  0  0
  8 24  1  0  0  0  0
 24 25  1  0  0  0  0
 25 26  2  0  0  0  0
 26 27  1  0  0  0  0
 27 28  2  0  0  0  0
 28 29  1  0  0  0  0
  6 29  1  0  0  0  0
 24 29  2  0  0  0  0
M  END
>  <Name>
ramatroban

>  <Target_Uniprot>
P21731

>  <CHEMBL Canonical SMILES>
OC(=O)CCN1C2=C(C[C@@H](CC2)NS(=O)(=O)C2=CC=C(F)C=C2)C2=CC=CC=C12

>  <PubMed ID>
19608418

$$$$

  Marvin  08031817322D          

 29 32  0  0  1  0            999 V2000
    2.8032    0.7588    0.0000 C   0  0  0  0  0  0  0  0  0  0  0  0
    2.1358    0.2739    0.0000 S   0  0  0  0  0  0  0  0  0  0  0  0
    1.4684   -0.2111    0.0000 O   0  0  0  0  0  0  0  0  0  0  0  0
    2.6207   -0.3936    0.0000 O   0  0  0  0  0  0  0  0  0  0  0  0
    1.6509    0.9413    0.0000 C   0  0  0  0  0  0  0  0  0  0  0  0
    1.9864    1.6950    0.0000 C   0  0  0  0  0  0  0  0  0  0  0  0
    1.5015    2.3624    0.0000 C   0  0  0  0  0  0  0  0  0  0  0  0
    1.8371    3.1161    0.0000 F   0  0  0  0  0  0  0  0  0  0  0  0
    0.6810    2.2762    0.0000 C   0  0  0  0  0  0  0  0  0  0  0  0
    0.3455    1.5225    0.0000 C   0  0  0  0  0  0  0  0  0  0  0  0
   -0.4391    1.2676    0.0000 C   0  0  0  0  0  0  0  0  0  0  0  0
   -1.2238    1.5225    0.0000 C   0  0  0  0  0  0  0  0  0  0  0  0
   -1.7087    0.8551    0.0000 C   0  0  0  0  0  0  0  0  0  0  0  0
   -1.2238    0.1876    0.0000 C   0  0  2  0  0  0  0  0  0  0  0  0
   -1.4787   -0.5970    0.0000 C   0  0  0  0  0  0  0  0  0  0  0  0
   -2.2857   -0.7685    0.0000 C   0  0  0  0  0  0  0  0  0  0  0  0
   -2.8377   -0.1554    0.0000 O   0  0  0  0  0  0  0  0  0  0  0  0
   -2.5406   -1.5531    0.0000 O   0  0  0  0  0  0  0  0  0  0  0  0
   -0.4391    0.4426    0.0000 C   0  0  0  0  0  0  0  0  0  0  0  0
    0.3455    0.1876    0.0000 N   0  0  0  0  0  0  0  0  0  0  0  0
    0.6004   -0.5970    0.0000 C   0  0  0  0  0  0  0  0  0  0  0  0
    0.0484   -1.2101    0.0000 C   0  0  0  0  0  0  0  0  0  0  0  0
   -0.7586   -1.0386    0.0000 C   0  0  0  0  0  0  0  0  0  0  0  0
   -1.3106   -1.6517    0.0000 C   0  0  0  0  0  0  0  0  0  0  0  0
   -1.0557   -2.4363    0.0000 C   0  0  0  0  0  0  0  0  0  0  0  0
   -1.6077   -3.0494    0.0000 Cl  0  0  0  0  0  0  0  0  0  0  0  0
   -0.2487   -2.6078    0.0000 C   0  0  0  0  0  0  0  0  0  0  0  0
    0.3033   -1.9947    0.0000 C   0  0  0  0  0  0  0  0  0  0  0  0
    0.8304    0.8551    0.0000 C   0  0  0  0  0  0  0  0  0  0  0  0
  1  2  1  0  0  0  0
  2  3  2  0  0  0  0
  2  4  2  0  0  0  0
  2  5  1  0  0  0  0
  5  6  2  0  0  0  0
  6  7  1  0  0  0  0
  7  8  1  0  0  0  0
  7  9  2  0  0  0  0
  9 10  1  0  0  0  0
 10 11  1  0  0  0  0
 11 12  1  0  0  0  0
 12 13  1  0  0  0  0
 13 14  1  0  0  0  0
 14 15  1  1  0  0  0
 15 16  1  0  0  0  0
 16 17  2  0  0  0  0
 16 18  1  0  0  0  0
 14 19  1  0  0  0  0
 11 19  2  0  0  0  0
 19 20  1  0  0  0  0
 20 21  1  0  0  0  0
 21 22  1  0  0  0  0
 22 23  1  0  0  0  0
 23 24  2  0  0  0  0
 24 25  1  0  0  0  0
 25 26  1  0  0  0  0
 25 27  2  0  0  0  0
 27 28  1  0  0  0  0
 22 28  2  0  0  0  0
 20 29  1  0  0  0  0
  5 29  1  0  0  0  0
 10 29  2  0  0  0  0
M  END
>  <Name>
laropiprant

>  <Target_Uniprot>
P21731

>  <CHEMBL Canonical SMILES>
CS(=O)(=O)c1cc(F)cc2c3CC[C@H](CC(=O)O)c3n(Cc4ccc(Cl)cc4)c12

>  <PubMed ID>
17300164

$$$$

  Marvin  08031817322D          

 31 34  0  0  0  0            999 V2000
    1.5704    3.9423    0.0000 C   0  0  0  0  0  0  0  0  0  0  0  0
    2.0554    3.2749    0.0000 N   0  0  0  0  0  0  0  0  0  0  0  0
    2.8758    3.3611    0.0000 C   0  0  0  0  0  0  0  0  0  0  0  0
    1.7198    2.5212    0.0000 S   0  0  0  0  0  0  0  0  0  0  0  0
    0.9661    2.8568    0.0000 O   0  0  0  0  0  0  0  0  0  0  0  0
    2.4735    2.1857    0.0000 O   0  0  0  0  0  0  0  0  0  0  0  0
    1.3842    1.7675    0.0000 C   0  0  0  0  0  0  0  0  0  0  0  0
    1.8692    1.1001    0.0000 C   0  0  0  0  0  0  0  0  0  0  0  0
    1.5336    0.3464    0.0000 C   0  0  0  0  0  0  0  0  0  0  0  0
    2.0185   -0.3210    0.0000 Br  0  0  0  0  0  0  0  0  0  0  0  0
    0.7131    0.2602    0.0000 C   0  0  0  0  0  0  0  0  0  0  0  0
    0.2282    0.9276    0.0000 C   0  0  0  0  0  0  0  0  0  0  0  0
    0.5638    1.6813    0.0000 C   0  0  0  0  0  0  0  0  0  0  0  0
   -0.5564    0.6727    0.0000 C   0  0  0  0  0  0  0  0  0  0  0  0
   -1.3410    0.9276    0.0000 C   0  0  0  0  0  0  0  0  0  0  0  0
   -1.8260    0.2602    0.0000 C   0  0  0  0  0  0  0  0  0  0  0  0
   -1.3410   -0.4072    0.0000 C   0  0  0  0  0  0  0  0  0  0  0  0
   -1.5960   -1.1919    0.0000 C   0  0  0  0  0  0  0  0  0  0  0  0
   -2.4029   -1.3634    0.0000 C   0  0  0  0  0  0  0  0  0  0  0  0
   -2.9550   -0.7503    0.0000 O   0  0  0  0  0  0  0  0  0  0  0  0
   -2.6579   -2.1480    0.0000 O   0  0  0  0  0  0  0  0  0  0  0  0
   -0.5564   -0.1523    0.0000 C   0  0  0  0  0  0  0  0  0  0  0  0
    0.2282   -0.4072    0.0000 N   0  0  0  0  0  0  0  0  0  0  0  0
    0.4831   -1.1919    0.0000 C   0  0  0  0  0  0  0  0  0  0  0  0
   -0.0689   -1.8050    0.0000 C   0  0  0  0  0  0  0  0  0  0  0  0
   -0.8759   -1.6334    0.0000 C   0  0  0  0  0  0  0  0  0  0  0  0
   -1.4279   -2.2465    0.0000 C   0  0  0  0  0  0  0  0  0  0  0  0
   -1.1729   -3.0311    0.0000 C   0  0  0  0  0  0  0  0  0  0  0  0
   -1.7250   -3.6442    0.0000 Cl  0  0  0  0  0  0  0  0  0  0  0  0
   -0.3660   -3.2027    0.0000 C   0  0  0  0  0  0  0  0  0  0  0  0
    0.1861   -2.5896    0.0000 C   0  0  0  0  0  0  0  0  0  0  0  0
  1  2  1  0  0  0  0
  2  3  1  0  0  0  0
  2  4  1  0  0  0  0
  4  5  2  0  0  0  0
  4  6  2  0  0  0  0
  4  7  1  0  0  0  0
  7  8  1  0  0  0  0
  8  9  2  0  0  0  0
  9 10  1  0  0  0  0
  9 11  1  0  0  0  0
 11 12  2  0  0  0  0
 12 13  1  0  0  0  0
  7 13  2  0  0  0  0
 12 14  1  0  0  0  0
 14 15  1  0  0  0  0
 15 16  1  0  0  0  0
 16 17  1  0  0  0  0
 17 18  1  0  0  0  0
 18 19  1  0  0  0  0
 19 20  2  0  0  0  0
 19 21  1  0  0  0  0
 17 22  1  0  0  0  0
 14 22  2  0  0  0  0
 22 23  1  0  0  0  0
 11 23  1  0  0  0  0
 23 24  1  0  0  0  0
 24 25  1  0  0  0  0
 25 26  1  0  0  0  0
 26 27  2  0  0  0  0
 27 28  1  0  0  0  0
 28 29  1  0  0  0  0
 28 30  2  0  0  0  0
 30 31  1  0  0  0  0
 25 31  2  0  0  0  0
M  END
>  <Name>
CHEMBL207451

>  <Target_Uniprot>
P21731

>  <CHEMBL Canonical SMILES>
CN(C)S(=O)(=O)c1cc(Br)c2c(c1)c3CCC(CC(=O)O)c3n2Cc4ccc(Cl)cc4

>  <PubMed ID>
16529930

$$$$

  Marvin  08031817322D          

 36 39  0  0  0  0            999 V2000
   -1.6473   -3.6781    0.0000 O   0  0  0  0  0  0  0  0  0  0  0  0
   -0.9328   -3.2656    0.0000 C   0  0  0  0  0  0  0  0  0  0  0  0
   -0.2183   -3.6781    0.0000 O   0  0  0  0  0  0  0  0  0  0  0  0
   -0.9328   -2.4406    0.0000 C   0  0  0  0  0  0  0  0  0  0  0  0
   -0.2183   -2.0281    0.0000 C   0  0  0  0  0  0  0  0  0  0  0  0
   -0.2183   -1.2031    0.0000 C   0  0  0  0  0  0  0  0  0  0  0  0
   -0.9328   -0.7906    0.0000 C   0  0  0  0  0  0  0  0  0  0  0  0
   -1.6473   -1.2031    0.0000 C   0  0  0  0  0  0  0  0  0  0  0  0
   -2.3617   -0.7906    0.0000 C   0  0  0  0  0  0  0  0  0  0  0  0
   -2.3617    0.0344    0.0000 C   0  0  0  0  0  0  0  0  0  0  0  0
   -1.6473    0.4469    0.0000 C   0  0  0  0  0  0  0  0  0  0  0  0
   -0.9328    0.0344    0.0000 C   0  0  0  0  0  0  0  0  0  0  0  0
   -0.2183    0.4469    0.0000 C   0  0  0  0  0  0  0  0  0  0  0  0
   -0.2183    1.2719    0.0000 C   0  0  0  0  0  0  0  0  0  0  0  0
    0.4962    1.6844    0.0000 C   0  0  0  0  0  0  0  0  0  0  0  0
    1.2106    1.2719    0.0000 C   0  0  0  0  0  0  0  0  0  0  0  0
    1.9251    1.6844    0.0000 N   0  0  0  0  0  0  0  0  0  0  0  0
    2.6396    1.2719    0.0000 S   0  0  0  0  0  0  0  0  0  0  0  0
    3.0521    1.9863    0.0000 O   0  0  0  0  0  0  0  0  0  0  0  0
    2.2271    0.5574    0.0000 O   0  0  0  0  0  0  0  0  0  0  0  0
    3.3540    0.8594    0.0000 C   0  0  0  0  0  0  0  0  0  0  0  0
    3.3540    0.0344    0.0000 C   0  0  0  0  0  0  0  0  0  0  0  0
    4.0685   -0.3781    0.0000 C   0  0  0  0  0  0  0  0  0  0  0  0
    4.7830    0.0344    0.0000 C   0  0  0  0  0  0  0  0  0  0  0  0
    5.4975   -0.3781    0.0000 Cl  0  0  0  0  0  0  0  0  0  0  0  0
    4.7830    0.8594    0.0000 C   0  0  0  0  0  0  0  0  0  0  0  0
    4.0685    1.2719    0.0000 C   0  0  0  0  0  0  0  0  0  0  0  0
   -0.9328    1.6844    0.0000 C   0  0  0  0  0  0  0  0  0  0  0  0
   -1.6473    1.2719    0.0000 C   0  0  0  0  0  0  0  0  0  0  0  0
   -3.0762    0.4469    0.0000 C   0  0  0  0  0  0  0  0  0  0  0  0
   -3.0762    1.2719    0.0000 C   0  0  0  0  0  0  0  0  0  0  0  0
   -3.7907    1.6844    0.0000 C   0  0  0  0  0  0  0  0  0  0  0  0
   -4.5051    1.2719    0.0000 C   0  0  0  0  0  0  0  0  0  0  0  0
   -4.5051    0.4469    0.0000 N   0  0  0  0  0  0  0  0  0  0  0  0
   -3.7907    0.0344    0.0000 C   0  0  0  0  0  0  0  0  0  0  0  0
   -1.6473   -2.0281    0.0000 C   0  0  0  0  0  0  0  0  0  0  0  0
  1  2  1  0  0  0  0
  2  3  2  0  0  0  0
  2  4  1  0  0  0  0
  4  5  1  0  0  0  0
  5  6  2  0  0  0  0
  6  7  1  0  0  0  0
  7  8  2  0  0  0  0
  8  9  1  0  0  0  0
  9 10  2  0  0  0  0
 10 11  1  0  0  0  0
 11 12  1  0  0  0  0
 12 13  2  0  0  0  0
 13 14  1  0  0  0  0
 14 15  1  0  0  0  0
 15 16  1  0  0  0  0
 16 17  1  0  0  0  0
 17 18  1  0  0  0  0
 18 19  2  0  0  0  0
 18 20  2  0  0  0  0
 18 21  1  0  0  0  0
 21 22  1  0  0  0  0
 22 23  2  0  0  0  0
 23 24  1  0  0  0  0
 24 25  1  0  0  0  0
 24 26  2  0  0  0  0
 26 27  1  0  0  0  0
 21 27  2  0  0  0  0
 14 28  2  0  0  0  0
 28 29  1  0  0  0  0
 11 29  2  0  0  0  0
 10 30  1  0  0  0  0
 30 31  1  0  0  0  0
 31 32  2  0  0  0  0
 32 33  1  0  0  0  0
 33 34  2  0  0  0  0
 34 35  1  0  0  0  0
 30 35  2  0  0  0  0
  8 36  1  0  0  0  0
  4 36  2  0  0  0  0
M  END
>  <Name>
CHEMBL126334

>  <Target_Uniprot>
P21731

>  <CHEMBL Canonical SMILES>
OC(=O)c1cccc(\C=C(/c2ccc(CCNS(=O)(=O)c3ccc(Cl)cc3)cc2)\c4cccnc4)c1

>  <PubMed ID>
8289199

$$$$

  Marvin  08031817322D          

 29 32  0  0  0  0            999 V2000
   -1.9701   -1.5674    0.0000 O   0  0  0  0  0  0  0  0  0  0  0  0
   -1.4181   -2.1805    0.0000 C   0  0  0  0  0  0  0  0  0  0  0  0
   -1.6730   -2.9651    0.0000 O   0  0  0  0  0  0  0  0  0  0  0  0
   -0.6111   -2.0090    0.0000 C   0  0  0  0  0  0  0  0  0  0  0  0
   -0.0591   -2.6221    0.0000 C   0  0  0  0  0  0  0  0  0  0  0  0
    0.7479   -2.4505    0.0000 C   0  0  0  0  0  0  0  0  0  0  0  0
    1.0028   -1.6659    0.0000 C   0  0  0  0  0  0  0  0  0  0  0  0
    0.4508   -1.0528    0.0000 C   0  0  0  0  0  0  0  0  0  0  0  0
   -0.3562   -1.2244    0.0000 C   0  0  0  0  0  0  0  0  0  0  0  0
    0.7057   -0.2682    0.0000 C   0  0  0  0  0  0  0  0  0  0  0  0
    0.9607   -1.0528    0.0000 S   0  0  0  0  0  0  0  0  0  0  0  0
    1.7857   -1.0528    0.0000 C   0  0  0  0  0  0  0  0  0  0  0  0
    2.0406   -0.2682    0.0000 C   0  0  0  0  0  0  0  0  0  0  0  0
    1.3732    0.2167    0.0000 C   0  0  0  0  0  0  0  0  0  0  0  0
    1.3732    1.0417    0.0000 C   0  0  0  0  0  0  0  0  0  0  0  0
    2.0877    1.4542    0.0000 C   0  0  0  0  0  0  0  0  0  0  0  0
    2.0877    2.2792    0.0000 C   0  0  0  0  0  0  0  0  0  0  0  0
    2.8021    2.6917    0.0000 Cl  0  0  0  0  0  0  0  0  0  0  0  0
    1.3732    2.6917    0.0000 C   0  0  0  0  0  0  0  0  0  0  0  0
    0.6587    2.2792    0.0000 C   0  0  0  0  0  0  0  0  0  0  0  0
    0.6587    1.4542    0.0000 C   0  0  0  0  0  0  0  0  0  0  0  0
   -0.0558    1.0417    0.0000 O   0  0  0  0  0  0  0  0  0  0  0  0
   -0.7702    1.4542    0.0000 C   0  0  0  0  0  0  0  0  0  0  0  0
   -1.4847    1.0417    0.0000 C   0  0  0  0  0  0  0  0  0  0  0  0
   -2.1992    1.4542    0.0000 C   0  0  0  0  0  0  0  0  0  0  0  0
   -2.9136    1.0417    0.0000 C   0  0  0  0  0  0  0  0  0  0  0  0
   -2.9136    0.2167    0.0000 C   0  0  0  0  0  0  0  0  0  0  0  0
   -2.1992   -0.1958    0.0000 C   0  0  0  0  0  0  0  0  0  0  0  0
   -1.4847    0.2167    0.0000 C   0  0  0  0  0  0  0  0  0  0  0  0
  1  2  1  0  0  0  0
  2  3  2  0  0  0  0
  2  4  1  0  0  0  0
  4  5  1  0  0  0  0
  5  6  2  0  0  0  0
  6  7  1  0  0  0  0
  7  8  2  0  0  0  0
  8  9  1  0  0  0  0
  4  9  2  0  0  0  0
  8 10  1  0  0  0  0
 10 11  1  0  0  0  0
 11 12  1  0  0  0  0
 12 13  2  0  0  0  0
 13 14  1  0  0  0  0
 10 14  2  0  0  0  0
 14 15  1  0  0  0  0
 15 16  1  0  0  0  0
 16 17  2  0  0  0  0
 17 18  1  0  0  0  0
 17 19  1  0  0  0  0
 19 20  2  0  0  0  0
 20 21  1  0  0  0  0
 15 21  2  0  0  0  0
 21 22  1  0  0  0  0
 22 23  1  0  0  0  0
 23 24  1  0  0  0  0
 24 25  1  0  0  0  0
 25 26  2  0  0  0  0
 26 27  1  0  0  0  0
 27 28  2  0  0  0  0
 28 29  1  0  0  0  0
 24 29  2  0  0  0  0
M  END
>  <Name>
CHEMBL362543

>  <Target_Uniprot>
P21731

>  <CHEMBL Canonical SMILES>
OC(=O)c1cccc(c1)c2sccc2c3cc(Cl)ccc3OCc4ccccc4

>  <PubMed ID>
15686932

$$$$

  Marvin  08031817322D          

 21 22  0  0  0  0            999 V2000
   -3.5074   -2.0020    0.0000 C   0  0  0  0  0  0  0  0  0  0  0  0
   -3.2222   -1.2279    0.0000 C   0  0  0  0  0  0  0  0  0  0  0  0
   -2.4617   -0.9225    0.0000 C   0  0  0  0  0  0  0  0  0  0  0  0
   -2.1249   -0.1856    0.0000 S   0  0  0  0  0  0  0  0  0  0  0  0
   -1.3445    0.0327    0.0000 C   0  0  0  0  0  0  0  0  0  0  0  0
   -1.0195    0.7861    0.0000 C   0  0  0  0  0  0  0  0  0  0  0  0
   -0.2615    1.0920    0.0000 C   0  0  0  0  0  0  0  0  0  0  0  0
    0.3880    0.5950    0.0000 C   0  0  0  0  0  0  0  0  0  0  0  0
    1.1277    0.9143    0.0000 C   0  0  0  0  0  0  0  0  0  0  0  0
    1.7918    0.4468    0.0000 C   0  0  0  0  0  0  0  0  0  0  0  0
    1.7557   -0.3745    0.0000 C   0  0  0  0  0  0  0  0  0  0  0  0
    2.3626   -0.9341    0.0000 C   0  0  0  0  0  0  0  0  0  0  0  0
    2.4005   -1.7589    0.0000 C   0  0  0  0  0  0  0  0  0  0  0  0
    3.0605   -2.2551    0.0000 C   0  0  0  0  0  0  0  0  0  0  0  0
    3.7639   -1.8225    0.0000 O   0  0  0  0  0  0  0  0  0  0  0  0
    2.8732   -3.0593    0.0000 O   0  0  0  0  0  0  0  0  0  0  0  0
   -0.3703    1.9782    0.0000 C   0  0  0  0  0  0  0  0  0  0  0  0
   -0.8812    2.7564    0.0000 C   0  0  0  0  0  0  0  0  0  0  0  0
   -1.7063    2.4318    0.0000 C   0  0  0  0  0  0  0  0  0  0  0  0
   -1.5525    1.5073    0.0000 C   0  0  0  0  0  0  0  0  0  0  0  0
   -1.0717    2.0018    0.0000 O   0  0  0  0  0  0  0  0  0  0  0  0
  1  2  1  0  0  0  0
  2  3  1  0  0  0  0
  3  4  1  0  0  0  0
  4  5  1  0  0  0  0
  5  6  1  0  0  0  0
  6  7  1  0  0  0  0
  7  8  1  0  0  0  0
  8  9  1  0  0  0  0
  9 10  2  0  0  0  0
 10 11  1  0  0  0  0
 11 12  1  0  0  0  0
 12 13  1  0  0  0  0
 13 14  1  0  0  0  0
 14 15  2  0  0  0  0
 14 16  1  0  0  0  0
  7 17  1  0  0  0  0
 17 18  1  0  0  0  0
 18 19  1  0  0  0  0
 19 20  1  0  0  0  0
  6 20  1  0  0  0  0
 20 21  1  0  0  0  0
 17 21  1  0  0  0  0
M  END
>  <Name>
CHEMBL175303

>  <Target_Uniprot>
P21731

>  <CHEMBL Canonical SMILES>
CCCSCC1C(C\C=C/CCCC(=O)O)C2CCC1O2

>  <PubMed ID>
2523485

$$$$

  Marvin  08031817322D          

 31 34  0  0  1  0            999 V2000
   -1.0771   -3.6131    0.0000 C   0  0  0  0  0  0  0  0  0  0  0  0
   -0.8251   -2.8249    0.0000 C   0  0  2  0  0  0  0  0  0  0  0  0
   -1.6196   -3.0470    0.0000 C   0  0  0  0  0  0  0  0  0  0  0  0
   -0.0303   -2.9537    0.0000 C   0  0  1  0  0  0  0  0  0  0  0  0
    0.5574   -2.3594    0.0000 C   0  0  0  0  0  0  0  0  0  0  0  0
    0.3065   -1.5854    0.0000 C   0  0  2  0  0  0  0  0  0  0  0  0
    0.8317   -0.9675    0.0000 C   0  0  0  0  0  0  0  0  0  0  0  0
    1.6275   -1.0899    0.0000 C   0  0  0  0  0  0  0  0  0  0  0  0
    2.1975   -0.4986    0.0000 C   0  0  0  0  0  0  0  0  0  0  0  0
    1.9878    0.3011    0.0000 C   0  0  0  0  0  0  0  0  0  0  0  0
    2.4808    0.9659    0.0000 C   0  0  0  0  0  0  0  0  0  0  0  0
    2.3449    1.7813    0.0000 C   0  0  0  0  0  0  0  0  0  0  0  0
    2.8941    2.3981    0.0000 C   0  0  0  0  0  0  0  0  0  0  0  0
    3.6688    2.1153    0.0000 O   0  0  0  0  0  0  0  0  0  0  0  0
    2.5482    3.1474    0.0000 O   0  0  0  0  0  0  0  0  0  0  0  0
   -0.4903   -1.3906    0.0000 C   0  0  1  0  0  0  0  0  0  0  0  0
   -0.6739   -0.5660    0.0000 N   0  0  0  0  0  0  0  0  0  0  0  0
   -0.1558    0.0917    0.0000 C   0  0  0  0  0  0  0  0  0  0  0  0
    0.6372   -0.1029    0.0000 O   0  0  0  0  0  0  0  0  0  0  0  0
   -0.4637    0.8481    0.0000 C   0  0  0  0  0  0  0  0  0  0  0  0
    0.0253    1.5090    0.0000 C   0  0  0  0  0  0  0  0  0  0  0  0
   -0.4554    2.1800    0.0000 S   0  0  0  0  0  0  0  0  0  0  0  0
   -1.2431    1.9278    0.0000 C   0  0  0  0  0  0  0  0  0  0  0  0
   -1.9534    2.3425    0.0000 C   0  0  0  0  0  0  0  0  0  0  0  0
   -2.6698    1.9327    0.0000 C   0  0  0  0  0  0  0  0  0  0  0  0
   -2.6733    1.1090    0.0000 C   0  0  0  0  0  0  0  0  0  0  0  0
   -3.3906    0.6979    0.0000 O   0  0  0  0  0  0  0  0  0  0  0  0
   -1.9607    0.6937    0.0000 C   0  0  0  0  0  0  0  0  0  0  0  0
   -1.2431    1.1021    0.0000 C   0  0  0  0  0  0  0  0  0  0  0  0
   -1.0244   -2.0433    0.0000 C   0  0  2  0  0  0  0  0  0  0  0  0
   -0.1584   -2.1015    0.0000 C   0  0  0  0  0  0  0  0  0  0  0  0
  1  2  1  0  0  0  0
  2  3  1  0  0  0  0
  4  2  1  6  0  0  0
  4  5  1  0  0  0  0
  5  6  1  0  0  0  0
  6  7  1  1  0  0  0
  7  8  1  0  0  0  0
  8  9  2  0  0  0  0
  9 10  1  0  0  0  0
 10 11  1  0  0  0  0
 11 12  1  0  0  0  0
 12 13  1  0  0  0  0
 13 14  2  0  0  0  0
 13 15  1  0  0  0  0
  6 16  1  0  0  0  0
 16 17  1  6  0  0  0
 17 18  1  0  0  0  0
 18 19  2  0  0  0  0
 18 20  1  0  0  0  0
 20 21  2  0  0  0  0
 21 22  1  0  0  0  0
 22 23  1  0  0  0  0
 23 24  1  0  0  0  0
 24 25  2  0  0  0  0
 25 26  1  0  0  0  0
 26 27  1  0  0  0  0
 26 28  2  0  0  0  0
 28 29  1  0  0  0  0
 20 29  1  0  0  0  0
 23 29  2  0  0  0  0
 16 30  1  0  0  0  0
 30  2  1  6  0  0  0
 30 31  1  0  0  0  0
  4 31  1  0  0  0  0
M  END
>  <Name>
CHEMBL116837

>  <Target_Uniprot>
P21731

>  <CHEMBL Canonical SMILES>
CC1(C)[C@H]2C[C@H](C\C=C/CCCC(=O)O)[C@@H](NC(=O)c3csc4ccc(O)cc34)[C@@H]1C2

>  <PubMed ID>
9357516

$$$$

  Marvin  08031817322D          

 33 37  0  0  0  0            999 V2000
   -2.6674   -0.4552    0.0000 O   0  0  0  0  0  0  0  0  0  0  0  0
   -1.9529   -0.8677    0.0000 C   0  0  0  0  0  0  0  0  0  0  0  0
   -1.9529   -1.6927    0.0000 O   0  0  0  0  0  0  0  0  0  0  0  0
   -1.2384   -0.4552    0.0000 C   0  0  0  0  0  0  0  0  0  0  0  0
   -1.2384    0.3698    0.0000 C   0  0  0  0  0  0  0  0  0  0  0  0
   -1.9529    0.7823    0.0000 C   0  0  0  0  0  0  0  0  0  0  0  0
   -1.9529    1.6073    0.0000 C   0  0  0  0  0  0  0  0  0  0  0  0
   -1.2384    2.0198    0.0000 C   0  0  0  0  0  0  0  0  0  0  0  0
   -0.5239    1.6073    0.0000 C   0  0  0  0  0  0  0  0  0  0  0  0
   -0.5239    0.7823    0.0000 C   0  0  0  0  0  0  0  0  0  0  0  0
    0.2607    0.5274    0.0000 N   0  0  0  0  0  0  0  0  0  0  0  0
    0.5156   -0.2572    0.0000 C   0  0  0  0  0  0  0  0  0  0  0  0
   -0.0364   -0.8703    0.0000 C   0  0  0  0  0  0  0  0  0  0  0  0
   -0.8434   -0.6988    0.0000 C   0  0  0  0  0  0  0  0  0  0  0  0
   -1.3954   -1.3119    0.0000 C   0  0  0  0  0  0  0  0  0  0  0  0
   -1.1405   -2.0965    0.0000 C   0  0  0  0  0  0  0  0  0  0  0  0
   -1.6925   -2.7096    0.0000 Cl  0  0  0  0  0  0  0  0  0  0  0  0
   -0.3335   -2.2681    0.0000 C   0  0  0  0  0  0  0  0  0  0  0  0
    0.2185   -1.6550    0.0000 C   0  0  0  0  0  0  0  0  0  0  0  0
    0.7456    1.1948    0.0000 C   0  0  0  0  0  0  0  0  0  0  0  0
    1.5661    1.2811    0.0000 C   0  0  0  0  0  0  0  0  0  0  0  0
    1.9016    2.0347    0.0000 C   0  0  0  0  0  0  0  0  0  0  0  0
    1.4167    2.7022    0.0000 C   0  0  0  0  0  0  0  0  0  0  0  0
    0.5962    2.6159    0.0000 C   0  0  0  0  0  0  0  0  0  0  0  0
    0.2607    1.8623    0.0000 C   0  0  0  0  0  0  0  0  0  0  0  0
    2.0510    0.6136    0.0000 S   0  3  0  0  0  0  0  0  0  0  0  0
    2.8715    0.6998    0.0000 O   0  5  0  0  0  0  0  0  0  0  0  0
    1.7155   -0.1401    0.0000 C   0  0  0  0  0  0  0  0  0  0  0  0
    0.8950   -0.2263    0.0000 C   0  0  0  0  0  0  0  0  0  0  0  0
    0.5594   -0.9800    0.0000 C   0  0  0  0  0  0  0  0  0  0  0  0
    1.0443   -1.6474    0.0000 C   0  0  0  0  0  0  0  0  0  0  0  0
    1.8648   -1.5612    0.0000 C   0  0  0  0  0  0  0  0  0  0  0  0
    2.2004   -0.8075    0.0000 C   0  0  0  0  0  0  0  0  0  0  0  0
  1  2  1  0  0  0  0
  2  3  2  0  0  0  0
  2  4  1  0  0  0  0
  4  5  1  0  0  0  0
  5  6  1  0  0  0  0
  6  7  1  0  0  0  0
  7  8  1  0  0  0  0
  8  9  1  0  0  0  0
  9 10  2  0  0  0  0
  5 10  1  0  0  0  0
 10 11  1  0  0  0  0
 11 12  1  0  0  0  0
 12 13  1  0  0  0  0
 13 14  1  0  0  0  0
 14 15  2  0  0  0  0
 15 16  1  0  0  0  0
 16 17  1  0  0  0  0
 16 18  2  0  0  0  0
 18 19  1  0  0  0  0
 13 19  2  0  0  0  0
 11 20  1  0  0  0  0
 20 21  1  0  0  0  0
 21 22  2  0  0  0  0
 22 23  1  0  0  0  0
 23 24  2  0  0  0  0
 24 25  1  0  0  0  0
  9 25  1  0  0  0  0
 20 25  2  0  0  0  0
 21 26  1  0  0  0  0
 26 27  1  0  0  0  0
 26 28  1  0  0  0  0
 28 29  1  0  0  0  0
 29 30  2  0  0  0  0
 30 31  1  0  0  0  0
 31 32  2  0  0  0  0
 32 33  1  0  0  0  0
 28 33  2  0  0  0  0
M  CHG  2  26   1  27  -1
M  END
>  <Name>
CHEMBL378929

>  <Target_Uniprot>
P21731

>  <CHEMBL Canonical SMILES>
OC(=O)CC1CCCc2c1n(Cc3ccc(Cl)cc3)c4c(cccc24)[S+]([O-])c5ccccc5

>  <PubMed ID>
16529930

$$$$

  Marvin  08031817322D          

 33 35  0  0  0  0            999 V2000
    2.4465   -3.3625    0.0000 N   0  0  0  0  0  0  0  0  0  0  0  0
    2.4465   -2.5375    0.0000 C   0  0  0  0  0  0  0  0  0  0  0  0
    3.1610   -2.1250    0.0000 O   0  0  0  0  0  0  0  0  0  0  0  0
    1.7321   -2.1250    0.0000 C   0  0  0  0  0  0  0  0  0  0  0  0
    1.0176   -2.5375    0.0000 C   0  0  0  0  0  0  0  0  0  0  0  0
    0.3031   -2.1250    0.0000 C   0  0  0  0  0  0  0  0  0  0  0  0
   -0.4114   -2.5375    0.0000 C   0  0  0  0  0  0  0  0  0  0  0  0
   -1.1258   -2.1250    0.0000 C   0  0  0  0  0  0  0  0  0  0  0  0
   -1.1258   -1.3000    0.0000 C   0  0  0  0  0  0  0  0  0  0  0  0
   -0.4114   -0.8875    0.0000 C   0  0  0  0  0  0  0  0  0  0  0  0
   -0.4114   -0.0625    0.0000 C   0  0  0  0  0  0  0  0  0  0  0  0
   -1.1258    0.3500    0.0000 C   0  0  0  0  0  0  0  0  0  0  0  0
   -1.1258    1.1750    0.0000 C   0  0  0  0  0  0  0  0  0  0  0  0
   -0.4114    1.5875    0.0000 C   0  0  0  0  0  0  0  0  0  0  0  0
   -0.4114    2.4125    0.0000 N   0  0  0  0  0  0  0  0  0  0  0  0
    0.3031    2.8250    0.0000 S   0  0  0  0  0  0  0  0  0  0  0  0
   -0.1094    3.5395    0.0000 O   0  0  0  0  0  0  0  0  0  0  0  0
    0.7156    2.1105    0.0000 O   0  0  0  0  0  0  0  0  0  0  0  0
    1.0176    3.2375    0.0000 C   0  0  0  0  0  0  0  0  0  0  0  0
    1.7321    2.8250    0.0000 C   0  0  0  0  0  0  0  0  0  0  0  0
    2.4465    3.2375    0.0000 C   0  0  0  0  0  0  0  0  0  0  0  0
    2.4465    4.0625    0.0000 C   0  0  0  0  0  0  0  0  0  0  0  0
    3.1610    4.4750    0.0000 Cl  0  0  0  0  0  0  0  0  0  0  0  0
    1.7321    4.4750    0.0000 C   0  0  0  0  0  0  0  0  0  0  0  0
    1.0176    4.0625    0.0000 C   0  0  0  0  0  0  0  0  0  0  0  0
   -1.8403   -0.0625    0.0000 C   0  0  0  0  0  0  0  0  0  0  0  0
   -1.8403   -0.8875    0.0000 C   0  0  0  0  0  0  0  0  0  0  0  0
   -1.8403   -2.5375    0.0000 C   0  0  0  0  0  0  0  0  0  0  0  0
   -2.5548   -2.1250    0.0000 C   0  0  0  0  0  0  0  0  0  0  0  0
   -3.2692   -2.5375    0.0000 C   0  0  0  0  0  0  0  0  0  0  0  0
   -3.2692   -3.3625    0.0000 C   0  0  0  0  0  0  0  0  0  0  0  0
   -2.5548   -3.7750    0.0000 N   0  0  0  0  0  0  0  0  0  0  0  0
   -1.8403   -3.3625    0.0000 C   0  0  0  0  0  0  0  0  0  0  0  0
  1  2  1  0  0  0  0
  2  3  2  0  0  0  0
  2  4  1  0  0  0  0
  4  5  1  0  0  0  0
  5  6  1  0  0  0  0
  6  7  1  0  0  0  0
  7  8  2  0  0  0  0
  8  9  1  0  0  0  0
  9 10  1  0  0  0  0
 10 11  2  0  0  0  0
 11 12  1  0  0  0  0
 12 13  1  0  0  0  0
 13 14  1  0  0  0  0
 14 15  1  0  0  0  0
 15 16  1  0  0  0  0
 16 17  2  0  0  0  0
 16 18  2  0  0  0  0
 16 19  1  0  0  0  0
 19 20  1  0  0  0  0
 20 21  2  0  0  0  0
 21 22  1  0  0  0  0
 22 23  1  0  0  0  0
 22 24  2  0  0  0  0
 24 25  1  0  0  0  0
 19 25  2  0  0  0  0
 12 26  2  0  0  0  0
 26 27  1  0  0  0  0
  9 27  2  0  0  0  0
  8 28  1  0  0  0  0
 28 29  1  0  0  0  0
 29 30  2  0  0  0  0
 30 31  1  0  0  0  0
 31 32  2  0  0  0  0
 32 33  1  0  0  0  0
 28 33  2  0  0  0  0
M  END
>  <Name>
CHEMBL127212

>  <Target_Uniprot>
P21731

>  <CHEMBL Canonical SMILES>
NC(=O)CCC\C=C(/c1ccc(CCNS(=O)(=O)c2ccc(Cl)cc2)cc1)\c3cccnc3

>  <PubMed ID>
8289199

$$$$

  Marvin  08031817322D          

 37 40  0  0  0  0            999 V2000
   -2.9826   -1.9406    0.0000 O   0  0  0  0  0  0  0  0  0  0  0  0
   -3.2375   -2.7252    0.0000 C   0  0  0  0  0  0  0  0  0  0  0  0
   -4.0445   -2.8967    0.0000 O   0  0  0  0  0  0  0  0  0  0  0  0
   -2.6855   -3.3383    0.0000 C   0  0  0  0  0  0  0  0  0  0  0  0
   -1.8785   -3.1668    0.0000 C   0  0  0  0  0  0  0  0  0  0  0  0
   -1.3265   -3.7799    0.0000 C   0  0  0  0  0  0  0  0  0  0  0  0
   -0.5195   -3.6083    0.0000 C   0  0  0  0  0  0  0  0  0  0  0  0
   -0.2646   -2.8237    0.0000 C   0  0  0  0  0  0  0  0  0  0  0  0
    0.5424   -2.6522    0.0000 C   0  0  0  0  0  0  0  0  0  0  0  0
    0.7974   -1.8676    0.0000 C   0  0  0  0  0  0  0  0  0  0  0  0
    0.2453   -1.2545    0.0000 C   0  0  0  0  0  0  0  0  0  0  0  0
   -0.5616   -1.4260    0.0000 C   0  0  0  0  0  0  0  0  0  0  0  0
   -0.8166   -2.2106    0.0000 C   0  0  0  0  0  0  0  0  0  0  0  0
    0.5003   -0.4698    0.0000 C   0  0  0  0  0  0  0  0  0  0  0  0
    1.2849   -0.2149    0.0000 O   0  0  0  0  0  0  0  0  0  0  0  0
    1.2849    0.6101    0.0000 C   0  0  0  0  0  0  0  0  0  0  0  0
    0.5003    0.8650    0.0000 C   0  0  0  0  0  0  0  0  0  0  0  0
    0.0153    0.1976    0.0000 N   0  0  0  0  0  0  0  0  0  0  0  0
    0.2453    1.6497    0.0000 C   0  0  0  0  0  0  0  0  0  0  0  0
   -0.5616    1.8212    0.0000 O   0  0  0  0  0  0  0  0  0  0  0  0
    0.7974    2.2628    0.0000 N   0  0  0  0  0  0  0  0  0  0  0  0
    0.5424    3.0474    0.0000 C   0  0  0  0  0  0  0  0  0  0  0  0
    1.0945    3.6605    0.0000 C   0  0  0  0  0  0  0  0  0  0  0  0
    0.8395    4.4451    0.0000 C   0  0  0  0  0  0  0  0  0  0  0  0
    1.3915    5.0582    0.0000 C   0  0  0  0  0  0  0  0  0  0  0  0
    1.1366    5.8428    0.0000 C   0  0  0  0  0  0  0  0  0  0  0  0
    1.6886    6.4559    0.0000 C   0  0  0  0  0  0  0  0  0  0  0  0
    1.4337    7.2405    0.0000 C   0  0  0  0  0  0  0  0  0  0  0  0
    0.6267    7.4121    0.0000 C   0  0  0  0  0  0  0  0  0  0  0  0
    0.0747    6.7990    0.0000 C   0  0  0  0  0  0  0  0  0  0  0  0
    0.3296    6.0143    0.0000 C   0  0  0  0  0  0  0  0  0  0  0  0
    0.0325   -4.2214    0.0000 C   0  0  0  0  0  0  0  0  0  0  0  0
   -0.2224   -5.0060    0.0000 C   0  0  0  0  0  0  0  0  0  0  0  0
    0.3296   -5.6191    0.0000 C   0  0  0  0  0  0  0  0  0  0  0  0
    1.1366   -5.4476    0.0000 C   0  0  0  0  0  0  0  0  0  0  0  0
    1.3915   -4.6630    0.0000 N   0  0  0  0  0  0  0  0  0  0  0  0
    0.8395   -4.0499    0.0000 C   0  0  0  0  0  0  0  0  0  0  0  0
  1  2  1  0  0  0  0
  2  3  2  0  0  0  0
  2  4  1  0  0  0  0
  4  5  1  0  0  0  0
  5  6  1  0  0  0  0
  6  7  2  0  0  0  0
  7  8  1  0  0  0  0
  8  9  1  0  0  0  0
  9 10  2  0  0  0  0
 10 11  1  0  0  0  0
 11 12  2  0  0  0  0
 12 13  1  0  0  0  0
  8 13  2  0  0  0  0
 11 14  1  0  0  0  0
 14 15  1  0  0  0  0
 15 16  1  0  0  0  0
 16 17  2  0  0  0  0
 17 18  1  0  0  0  0
 14 18  2  0  0  0  0
 17 19  1  0  0  0  0
 19 20  2  0  0  0  0
 19 21  1  0  0  0  0
 21 22  1  0  0  0  0
 22 23  1  0  0  0  0
 23 24  1  0  0  0  0
 24 25  1  0  0  0  0
 25 26  1  0  0  0  0
 26 27  1  0  0  0  0
 27 28  1  0  0  0  0
 28 29  1  0  0  0  0
 29 30  1  0  0  0  0
 30 31  1  0  0  0  0
 26 31  1  0  0  0  0
  7 32  1  0  0  0  0
 32 33  1  0  0  0  0
 33 34  2  0  0  0  0
 34 35  1  0  0  0  0
 35 36  2  0  0  0  0
 36 37  1  0  0  0  0
 32 37  2  0  0  0  0
M  END
>  <Name>
CHEMBL418323

>  <Target_Uniprot>
P21731

>  <CHEMBL Canonical SMILES>
OC(=O)CC\C=C(/c1ccc(cc1)c2occ(n2)C(=O)NCCCCC3CCCCC3)\c4cccnc4

>  <PubMed ID>
9873463

$$$$

  Marvin  08031817322D          

 36 39  0  0  0  0            999 V2000
   -3.4103    0.1043    0.0000 C   0  0  0  0  0  0  0  0  0  0  0  0
   -3.5939    0.9086    0.0000 O   0  0  0  0  0  0  0  0  0  0  0  0
   -2.9891    1.4697    0.0000 C   0  0  0  0  0  0  0  0  0  0  0  0
   -2.2007    1.2266    0.0000 C   0  0  0  0  0  0  0  0  0  0  0  0
   -1.5960    1.7877    0.0000 C   0  0  0  0  0  0  0  0  0  0  0  0
   -1.7796    2.5920    0.0000 C   0  0  0  0  0  0  0  0  0  0  0  0
   -2.5679    2.8352    0.0000 C   0  0  0  0  0  0  0  0  0  0  0  0
   -2.7515    3.6395    0.0000 O   0  0  0  0  0  0  0  0  0  0  0  0
   -2.1467    4.2006    0.0000 C   0  0  0  0  0  0  0  0  0  0  0  0
   -3.1727    2.2740    0.0000 C   0  0  0  0  0  0  0  0  0  0  0  0
   -3.9610    2.5172    0.0000 O   0  0  0  0  0  0  0  0  0  0  0  0
   -4.1446    3.3215    0.0000 C   0  0  0  0  0  0  0  0  0  0  0  0
   -0.8076    1.5445    0.0000 C   0  0  0  0  0  0  0  0  0  0  0  0
   -0.2029    2.1057    0.0000 O   0  0  0  0  0  0  0  0  0  0  0  0
   -0.6241    0.7402    0.0000 N   0  0  0  0  0  0  0  0  0  0  0  0
    0.1643    0.4970    0.0000 C   0  0  0  0  0  0  0  0  0  0  0  0
    0.3479   -0.3073    0.0000 C   0  0  0  0  0  0  0  0  0  0  0  0
    1.1362   -0.5505    0.0000 S   0  0  0  0  0  0  0  0  0  0  0  0
    1.3198   -1.3548    0.0000 C   0  0  0  0  0  0  0  0  0  0  0  0
    0.6748   -1.8691    0.0000 C   0  0  0  0  0  0  0  0  0  0  0  0
   -0.0397   -1.4566    0.0000 C   0  0  0  0  0  0  0  0  0  0  0  0
   -0.7542   -1.8691    0.0000 C   0  0  0  0  0  0  0  0  0  0  0  0
   -0.7542   -2.6941    0.0000 C   0  0  0  0  0  0  0  0  0  0  0  0
   -0.0397   -3.1066    0.0000 C   0  0  0  0  0  0  0  0  0  0  0  0
    0.6748   -2.6941    0.0000 C   0  0  0  0  0  0  0  0  0  0  0  0
    1.3198   -3.2085    0.0000 C   0  0  0  0  0  0  0  0  0  0  0  0
    2.1241   -3.0249    0.0000 O   0  0  0  0  0  0  0  0  0  0  0  0
    2.4821   -2.2816    0.0000 C   0  0  0  0  0  0  0  0  0  0  0  0
    3.3048   -2.3433    0.0000 C   0  0  0  0  0  0  0  0  0  0  0  0
    3.7695   -1.6617    0.0000 C   0  0  0  0  0  0  0  0  0  0  0  0
    3.4115   -0.9184    0.0000 C   0  0  0  0  0  0  0  0  0  0  0  0
    2.5889   -0.8567    0.0000 C   0  0  0  0  0  0  0  0  0  0  0  0
    2.1241   -1.5384    0.0000 C   0  0  0  0  0  0  0  0  0  0  0  0
    3.8763   -0.2367    0.0000 C   0  0  0  0  0  0  0  0  0  0  0  0
    3.5183    0.5066    0.0000 O   0  0  0  0  0  0  0  0  0  0  0  0
    4.6990   -0.2984    0.0000 O   0  0  0  0  0  0  0  0  0  0  0  0
  1  2  1  0  0  0  0
  2  3  1  0  0  0  0
  3  4  1  0  0  0  0
  4  5  2  0  0  0  0
  5  6  1  0  0  0  0
  6  7  2  0  0  0  0
  7  8  1  0  0  0  0
  8  9  1  0  0  0  0
  7 10  1  0  0  0  0
  3 10  2  0  0  0  0
 10 11  1  0  0  0  0
 11 12  1  0  0  0  0
  5 13  1  0  0  0  0
 13 14  2  0  0  0  0
 13 15  1  0  0  0  0
 15 16  1  0  0  0  0
 16 17  1  0  0  0  0
 17 18  1  0  0  0  0
 18 19  1  0  0  0  0
 19 20  1  0  0  0  0
 20 21  1  0  0  0  0
 21 22  2  0  0  0  0
 22 23  1  0  0  0  0
 23 24  2  0  0  0  0
 24 25  1  0  0  0  0
 20 25  2  0  0  0  0
 25 26  1  0  0  0  0
 26 27  1  0  0  0  0
 27 28  1  0  0  0  0
 28 29  1  0  0  0  0
 29 30  2  0  0  0  0
 30 31  1  0  0  0  0
 31 32  2  0  0  0  0
 32 33  1  0  0  0  0
 19 33  1  0  0  0  0
 28 33  2  0  0  0  0
 31 34  1  0  0  0  0
 34 35  2  0  0  0  0
 34 36  1  0  0  0  0
M  END
>  <Name>
CHEMBL114260

>  <Target_Uniprot>
P21731

>  <CHEMBL Canonical SMILES>
COc1cc(cc(OC)c1OC)C(=O)NCCSC2c3ccccc3COc4ccc(cc24)C(=O)O

>  <PubMed ID>
1388207

$$$$

  Marvin  08031817322D          

 33 37  0  0  0  0            999 V2000
    2.8758    1.5070    0.0000 C   0  0  0  0  0  0  0  0  0  0  0  0
    2.1614    1.0945    0.0000 O   0  0  0  0  0  0  0  0  0  0  0  0
    1.4469    1.5070    0.0000 C   0  0  0  0  0  0  0  0  0  0  0  0
    1.4469    2.3320    0.0000 C   0  0  0  0  0  0  0  0  0  0  0  0
    0.7324    2.7445    0.0000 C   0  0  0  0  0  0  0  0  0  0  0  0
    0.7324    3.5695    0.0000 O   0  0  0  0  0  0  0  0  0  0  0  0
    1.4469    3.9820    0.0000 C   0  0  0  0  0  0  0  0  0  0  0  0
    0.0179    2.3320    0.0000 C   0  0  0  0  0  0  0  0  0  0  0  0
   -0.7667    2.5869    0.0000 N   0  0  0  0  0  0  0  0  0  0  0  0
   -1.2516    1.9195    0.0000 C   0  0  0  0  0  0  0  0  0  0  0  0
   -0.7667    1.2521    0.0000 N   0  0  0  0  0  0  0  0  0  0  0  0
   -1.0216    0.4674    0.0000 C   0  0  0  0  0  0  0  0  0  0  0  0
   -0.4696   -0.1456    0.0000 C   0  0  0  0  0  0  0  0  0  0  0  0
   -0.7245   -0.9303    0.0000 C   0  0  0  0  0  0  0  0  0  0  0  0
   -1.5421   -1.0410    0.0000 C   0  0  0  0  0  0  0  0  0  0  0  0
   -1.9438   -0.3204    0.0000 C   0  0  0  0  0  0  0  0  0  0  0  0
   -2.7687   -0.3081    0.0000 C   0  0  0  0  0  0  0  0  0  0  0  0
   -3.1919   -1.0163    0.0000 C   0  0  0  0  0  0  0  0  0  0  0  0
   -2.7901   -1.7369    0.0000 C   0  0  0  0  0  0  0  0  0  0  0  0
   -1.9652   -1.7492    0.0000 C   0  0  0  0  0  0  0  0  0  0  0  0
   -1.6753   -2.5216    0.0000 C   0  0  0  0  0  0  0  0  0  0  0  0
   -0.8907   -2.7766    0.0000 O   0  0  0  0  0  0  0  0  0  0  0  0
   -0.2022   -2.3221    0.0000 C   0  0  0  0  0  0  0  0  0  0  0  0
    0.4724   -2.7970    0.0000 C   0  0  0  0  0  0  0  0  0  0  0  0
    1.2210   -2.4502    0.0000 C   0  0  0  0  0  0  0  0  0  0  0  0
    1.2950   -1.6285    0.0000 C   0  0  0  0  0  0  0  0  0  0  0  0
    0.6204   -1.1536    0.0000 C   0  0  0  0  0  0  0  0  0  0  0  0
   -0.1282   -1.5004    0.0000 C   0  0  0  0  0  0  0  0  0  0  0  0
    2.0435   -1.2817    0.0000 C   0  0  0  0  0  0  0  0  0  0  0  0
    2.1175   -0.4600    0.0000 O   0  0  0  0  0  0  0  0  0  0  0  0
    2.7182   -1.7566    0.0000 O   0  0  0  0  0  0  0  0  0  0  0  0
    0.0179    1.5070    0.0000 C   0  0  0  0  0  0  0  0  0  0  0  0
    0.7324    1.0945    0.0000 C   0  0  0  0  0  0  0  0  0  0  0  0
  1  2  1  0  0  0  0
  2  3  1  0  0  0  0
  3  4  1  0  0  0  0
  4  5  2  0  0  0  0
  5  6  1  0  0  0  0
  6  7  1  0  0  0  0
  5  8  1  0  0  0  0
  8  9  1  0  0  0  0
  9 10  2  0  0  0  0
 10 11  1  0  0  0  0
 11 12  1  0  0  0  0
 12 13  1  0  0  0  0
 13 14  2  0  0  0  0
 14 15  1  0  0  0  0
 15 16  1  0  0  0  0
 16 17  2  0  0  0  0
 17 18  1  0  0  0  0
 18 19  2  0  0  0  0
 19 20  1  0  0  0  0
 15 20  2  0  0  0  0
 20 21  1  0  0  0  0
 21 22  1  0  0  0  0
 22 23  1  0  0  0  0
 23 24  1  0  0  0  0
 24 25  2  0  0  0  0
 25 26  1  0  0  0  0
 26 27  2  0  0  0  0
 27 28  1  0  0  0  0
 14 28  1  0  0  0  0
 23 28  2  0  0  0  0
 26 29  1  0  0  0  0
 29 30  2  0  0  0  0
 29 31  1  0  0  0  0
 11 32  1  0  0  0  0
  8 32  2  0  0  0  0
 32 33  1  0  0  0  0
  3 33  2  0  0  0  0
M  END
>  <Name>
CHEMBL420136

>  <Target_Uniprot>
P21731

>  <CHEMBL Canonical SMILES>
COc1cc(OC)c2ncn(C\C=C\3/c4ccccc4COc5ccc(cc35)C(=O)O)c2c1

>  <PubMed ID>
1388208

$$$$

  Marvin  08031817322D          

 34 38  0  0  0  0            999 V2000
   -2.9482   -0.3485    0.0000 O   0  0  0  0  0  0  0  0  0  0  0  0
   -2.2337   -0.7610    0.0000 C   0  0  0  0  0  0  0  0  0  0  0  0
   -2.2337   -1.5860    0.0000 O   0  0  0  0  0  0  0  0  0  0  0  0
   -1.5192   -0.3485    0.0000 C   0  0  0  0  0  0  0  0  0  0  0  0
   -1.5192    0.4765    0.0000 C   0  0  0  0  0  0  0  0  0  0  0  0
   -2.2337    0.8890    0.0000 C   0  0  0  0  0  0  0  0  0  0  0  0
   -2.2337    1.7140    0.0000 C   0  0  0  0  0  0  0  0  0  0  0  0
   -1.5192    2.1265    0.0000 C   0  0  0  0  0  0  0  0  0  0  0  0
   -0.8048    1.7140    0.0000 C   0  0  0  0  0  0  0  0  0  0  0  0
   -0.8048    0.8890    0.0000 C   0  0  0  0  0  0  0  0  0  0  0  0
   -0.0201    0.6341    0.0000 N   0  0  0  0  0  0  0  0  0  0  0  0
    0.2348   -0.1506    0.0000 C   0  0  0  0  0  0  0  0  0  0  0  0
   -0.3172   -0.7637    0.0000 C   0  0  0  0  0  0  0  0  0  0  0  0
   -1.1242   -0.5921    0.0000 C   0  0  0  0  0  0  0  0  0  0  0  0
   -1.6762   -1.2052    0.0000 C   0  0  0  0  0  0  0  0  0  0  0  0
   -1.4213   -1.9898    0.0000 C   0  0  0  0  0  0  0  0  0  0  0  0
   -1.9733   -2.6029    0.0000 Cl  0  0  0  0  0  0  0  0  0  0  0  0
   -0.6143   -2.1614    0.0000 C   0  0  0  0  0  0  0  0  0  0  0  0
   -0.0623   -1.5483    0.0000 C   0  0  0  0  0  0  0  0  0  0  0  0
    0.4648    1.3015    0.0000 C   0  0  0  0  0  0  0  0  0  0  0  0
    1.2853    1.3877    0.0000 C   0  0  0  0  0  0  0  0  0  0  0  0
    1.6208    2.1414    0.0000 C   0  0  0  0  0  0  0  0  0  0  0  0
    1.1359    2.8088    0.0000 C   0  0  0  0  0  0  0  0  0  0  0  0
    0.3154    2.7226    0.0000 C   0  0  0  0  0  0  0  0  0  0  0  0
   -0.0201    1.9689    0.0000 C   0  0  0  0  0  0  0  0  0  0  0  0
    1.7702    0.7203    0.0000 C   0  0  0  0  0  0  0  0  0  0  0  0
    2.5907    0.8065    0.0000 O   0  0  0  0  0  0  0  0  0  0  0  0
    1.4346   -0.0334    0.0000 N   0  0  0  0  0  0  0  0  0  0  0  0
    1.9196   -0.7008    0.0000 C   0  0  0  0  0  0  0  0  0  0  0  0
    1.5840   -1.4545    0.0000 C   0  0  0  0  0  0  0  0  0  0  0  0
    2.0689   -2.1219    0.0000 C   0  0  0  0  0  0  0  0  0  0  0  0
    2.8894   -2.0357    0.0000 C   0  0  0  0  0  0  0  0  0  0  0  0
    3.2250   -1.2820    0.0000 C   0  0  0  0  0  0  0  0  0  0  0  0
    2.7400   -0.6146    0.0000 C   0  0  0  0  0  0  0  0  0  0  0  0
  1  2  1  0  0  0  0
  2  3  2  0  0  0  0
  2  4  1  0  0  0  0
  4  5  1  0  0  0  0
  5  6  1  0  0  0  0
  6  7  1  0  0  0  0
  7  8  1  0  0  0  0
  8  9  1  0  0  0  0
  9 10  2  0  0  0  0
  5 10  1  0  0  0  0
 10 11  1  0  0  0  0
 11 12  1  0  0  0  0
 12 13  1  0  0  0  0
 13 14  1  0  0  0  0
 14 15  2  0  0  0  0
 15 16  1  0  0  0  0
 16 17  1  0  0  0  0
 16 18  2  0  0  0  0
 18 19  1  0  0  0  0
 13 19  2  0  0  0  0
 11 20  1  0  0  0  0
 20 21  1  0  0  0  0
 21 22  2  0  0  0  0
 22 23  1  0  0  0  0
 23 24  2  0  0  0  0
 24 25  1  0  0  0  0
  9 25  1  0  0  0  0
 20 25  2  0  0  0  0
 21 26  1  0  0  0  0
 26 27  2  0  0  0  0
 26 28  1  0  0  0  0
 28 29  1  0  0  0  0
 29 30  1  0  0  0  0
 30 31  2  0  0  0  0
 31 32  1  0  0  0  0
 32 33  2  0  0  0  0
 33 34  1  0  0  0  0
 29 34  2  0  0  0  0
M  END
>  <Name>
CHEMBL378151

>  <Target_Uniprot>
P21731

>  <CHEMBL Canonical SMILES>
OC(=O)CC1CCCc2c1n(Cc3ccc(Cl)cc3)c4c(cccc24)C(=O)Nc5ccccc5

>  <PubMed ID>
16529930

$$$$

  Marvin  08031817322D          

 32 35  0  0  0  0            999 V2000
    2.4895    2.1153    0.0000 O   0  0  0  0  0  0  0  0  0  0  0  0
    2.0770    1.4008    0.0000 C   0  0  0  0  0  0  0  0  0  0  0  0
    1.2520    1.4008    0.0000 C   0  0  0  0  0  0  0  0  0  0  0  0
    0.7671    2.0683    0.0000 O   0  0  0  0  0  0  0  0  0  0  0  0
   -0.0175    1.8133    0.0000 C   0  0  0  0  0  0  0  0  0  0  0  0
   -0.7320    2.2258    0.0000 C   0  0  0  0  0  0  0  0  0  0  0  0
   -0.7320    3.0508    0.0000 O   0  0  0  0  0  0  0  0  0  0  0  0
   -0.0175    3.4633    0.0000 C   0  0  0  0  0  0  0  0  0  0  0  0
   -0.0175    4.2883    0.0000 C   0  0  0  0  0  0  0  0  0  0  0  0
   -0.7320    4.7008    0.0000 O   0  0  0  0  0  0  0  0  0  0  0  0
    0.6970    4.7008    0.0000 O   0  0  0  0  0  0  0  0  0  0  0  0
   -1.4464    1.8133    0.0000 C   0  0  0  0  0  0  0  0  0  0  0  0
   -1.4464    0.9883    0.0000 C   0  0  0  0  0  0  0  0  0  0  0  0
   -0.7320    0.5758    0.0000 C   0  0  0  0  0  0  0  0  0  0  0  0
   -0.0175    0.9883    0.0000 C   0  0  0  0  0  0  0  0  0  0  0  0
    0.7671    0.7334    0.0000 C   0  0  0  0  0  0  0  0  0  0  0  0
    1.0221   -0.0512    0.0000 C   0  0  0  0  0  0  0  0  0  0  0  0
    0.4700   -0.6643    0.0000 C   0  0  0  0  0  0  0  0  0  0  0  0
    0.7250   -1.4489    0.0000 S   0  0  0  0  0  0  0  0  0  0  0  0
    0.1729   -2.0620    0.0000 C   0  0  0  0  0  0  0  0  0  0  0  0
   -0.6340   -1.8905    0.0000 C   0  0  0  0  0  0  0  0  0  0  0  0
   -0.8890   -1.1059    0.0000 C   0  0  0  0  0  0  0  0  0  0  0  0
   -1.6959   -0.9344    0.0000 C   0  0  0  0  0  0  0  0  0  0  0  0
   -2.2480   -1.5474    0.0000 C   0  0  0  0  0  0  0  0  0  0  0  0
   -1.9930   -2.3321    0.0000 C   0  0  0  0  0  0  0  0  0  0  0  0
   -1.1861   -2.5036    0.0000 C   0  0  0  0  0  0  0  0  0  0  0  0
    0.4279   -2.8466    0.0000 C   0  0  0  0  0  0  0  0  0  0  0  0
   -0.1242   -3.4597    0.0000 C   0  0  0  0  0  0  0  0  0  0  0  0
    0.1308   -4.2444    0.0000 C   0  0  0  0  0  0  0  0  0  0  0  0
    0.9378   -4.4159    0.0000 C   0  0  0  0  0  0  0  0  0  0  0  0
    1.4898   -3.8028    0.0000 C   0  0  0  0  0  0  0  0  0  0  0  0
    1.2348   -3.0182    0.0000 C   0  0  0  0  0  0  0  0  0  0  0  0
  1  2  1  0  0  0  0
  2  3  1  0  0  0  0
  3  4  1  0  0  0  0
  4  5  1  0  0  0  0
  5  6  1  0  0  0  0
  6  7  1  0  0  0  0
  7  8  1  0  0  0  0
  8  9  1  0  0  0  0
  9 10  2  0  0  0  0
  9 11  1  0  0  0  0
  6 12  2  0  0  0  0
 12 13  1  0  0  0  0
 13 14  2  0  0  0  0
 14 15  1  0  0  0  0
  5 15  2  0  0  0  0
 15 16  1  0  0  0  0
  3 16  2  0  0  0  0
 16 17  1  0  0  0  0
 17 18  1  0  0  0  0
 18 19  1  0  0  0  0
 19 20  1  0  0  0  0
 20 21  1  0  0  0  0
 21 22  1  0  0  0  0
 22 23  2  0  0  0  0
 23 24  1  0  0  0  0
 24 25  2  0  0  0  0
 25 26  1  0  0  0  0
 21 26  2  0  0  0  0
 20 27  1  0  0  0  0
 27 28  1  0  0  0  0
 28 29  2  0  0  0  0
 29 30  1  0  0  0  0
 30 31  2  0  0  0  0
 31 32  1  0  0  0  0
 27 32  2  0  0  0  0
M  END
>  <Name>
CHEMBL190708

>  <Target_Uniprot>
P21731

>  <CHEMBL Canonical SMILES>
OCc1oc2c(OCC(=O)O)cccc2c1CCSC(c3ccccc3)c4ccccc4

>  <PubMed ID>
16078846

$$$$

  Marvin  08031817322D          

 33 35  0  0  0  0            999 V2000
    2.4465   -3.3625    0.0000 O   0  0  0  0  0  0  0  0  0  0  0  0
    2.4465   -2.5375    0.0000 C   0  0  0  0  0  0  0  0  0  0  0  0
    3.1610   -2.1250    0.0000 O   0  0  0  0  0  0  0  0  0  0  0  0
    1.7321   -2.1250    0.0000 C   0  0  0  0  0  0  0  0  0  0  0  0
    1.0176   -2.5375    0.0000 C   0  0  0  0  0  0  0  0  0  0  0  0
    0.3031   -2.1250    0.0000 C   0  0  0  0  0  0  0  0  0  0  0  0
   -0.4114   -2.5375    0.0000 C   0  0  0  0  0  0  0  0  0  0  0  0
   -1.1258   -2.1250    0.0000 C   0  0  0  0  0  0  0  0  0  0  0  0
   -1.1258   -1.3000    0.0000 C   0  0  0  0  0  0  0  0  0  0  0  0
   -0.4114   -0.8875    0.0000 C   0  0  0  0  0  0  0  0  0  0  0  0
   -0.4114   -0.0625    0.0000 C   0  0  0  0  0  0  0  0  0  0  0  0
   -1.1258    0.3500    0.0000 C   0  0  0  0  0  0  0  0  0  0  0  0
   -1.1258    1.1750    0.0000 C   0  0  0  0  0  0  0  0  0  0  0  0
   -0.4114    1.5875    0.0000 C   0  0  0  0  0  0  0  0  0  0  0  0
   -0.4114    2.4125    0.0000 N   0  0  0  0  0  0  0  0  0  0  0  0
    0.3031    2.8250    0.0000 S   0  0  0  0  0  0  0  0  0  0  0  0
   -0.1094    3.5395    0.0000 O   0  0  0  0  0  0  0  0  0  0  0  0
    0.7156    2.1105    0.0000 O   0  0  0  0  0  0  0  0  0  0  0  0
    1.0176    3.2375    0.0000 C   0  0  0  0  0  0  0  0  0  0  0  0
    1.7321    2.8250    0.0000 C   0  0  0  0  0  0  0  0  0  0  0  0
    2.4465    3.2375    0.0000 C   0  0  0  0  0  0  0  0  0  0  0  0
    2.4465    4.0625    0.0000 C   0  0  0  0  0  0  0  0  0  0  0  0
    3.1610    4.4750    0.0000 Cl  0  0  0  0  0  0  0  0  0  0  0  0
    1.7321    4.4750    0.0000 C   0  0  0  0  0  0  0  0  0  0  0  0
    1.0176    4.0625    0.0000 C   0  0  0  0  0  0  0  0  0  0  0  0
   -1.8403   -0.0625    0.0000 C   0  0  0  0  0  0  0  0  0  0  0  0
   -1.8403   -0.8875    0.0000 C   0  0  0  0  0  0  0  0  0  0  0  0
   -1.8403   -2.5375    0.0000 C   0  0  0  0  0  0  0  0  0  0  0  0
   -2.5548   -2.1250    0.0000 C   0  0  0  0  0  0  0  0  0  0  0  0
   -3.2692   -2.5375    0.0000 C   0  0  0  0  0  0  0  0  0  0  0  0
   -3.2692   -3.3625    0.0000 C   0  0  0  0  0  0  0  0  0  0  0  0
   -2.5548   -3.7750    0.0000 N   0  0  0  0  0  0  0  0  0  0  0  0
   -1.8403   -3.3625    0.0000 C   0  0  0  0  0  0  0  0  0  0  0  0
  1  2  1  0  0  0  0
  2  3  2  0  0  0  0
  2  4  1  0  0  0  0
  4  5  1  0  0  0  0
  5  6  1  0  0  0  0
  6  7  1  0  0  0  0
  7  8  1  0  0  0  0
  8  9  1  0  0  0  0
  9 10  1  0  0  0  0
 10 11  2  0  0  0  0
 11 12  1  0  0  0  0
 12 13  1  0  0  0  0
 13 14  1  0  0  0  0
 14 15  1  0  0  0  0
 15 16  1  0  0  0  0
 16 17  2  0  0  0  0
 16 18  2  0  0  0  0
 16 19  1  0  0  0  0
 19 20  1  0  0  0  0
 20 21  2  0  0  0  0
 21 22  1  0  0  0  0
 22 23  1  0  0  0  0
 22 24  2  0  0  0  0
 24 25  1  0  0  0  0
 19 25  2  0  0  0  0
 12 26  2  0  0  0  0
 26 27  1  0  0  0  0
  9 27  2  0  0  0  0
  8 28  1  0  0  0  0
 28 29  1  0  0  0  0
 29 30  2  0  0  0  0
 30 31  1  0  0  0  0
 31 32  2  0  0  0  0
 32 33  1  0  0  0  0
 28 33  2  0  0  0  0
M  END
>  <Name>
CHEMBL339269

>  <Target_Uniprot>
P21731

>  <CHEMBL Canonical SMILES>
OC(=O)CCCCC(c1ccc(CCNS(=O)(=O)c2ccc(Cl)cc2)cc1)c3cccnc3

>  <PubMed ID>
8289199

$$$$

  Marvin  08031817322D          

 32 34  0  0  0  0            999 V2000
    2.5453   -3.2227    0.0000 O   0  0  0  0  0  0  0  0  0  0  0  0
    2.5453   -2.3977    0.0000 C   0  0  0  0  0  0  0  0  0  0  0  0
    3.2598   -1.9852    0.0000 O   0  0  0  0  0  0  0  0  0  0  0  0
    1.8308   -1.9852    0.0000 C   0  0  0  0  0  0  0  0  0  0  0  0
    1.1164   -2.3977    0.0000 C   0  0  0  0  0  0  0  0  0  0  0  0
    0.4019   -1.9852    0.0000 C   0  0  0  0  0  0  0  0  0  0  0  0
   -0.3126   -2.3977    0.0000 C   0  0  0  0  0  0  0  0  0  0  0  0
   -1.0271   -1.9852    0.0000 C   0  0  0  0  0  0  0  0  0  0  0  0
   -1.0271   -1.1602    0.0000 C   0  0  0  0  0  0  0  0  0  0  0  0
   -0.3126   -0.7477    0.0000 C   0  0  0  0  0  0  0  0  0  0  0  0
   -0.3126    0.0773    0.0000 C   0  0  0  0  0  0  0  0  0  0  0  0
   -1.0271    0.4898    0.0000 C   0  0  0  0  0  0  0  0  0  0  0  0
   -1.0271    1.3148    0.0000 C   0  0  0  0  0  0  0  0  0  0  0  0
   -0.3126    1.7273    0.0000 C   0  0  0  0  0  0  0  0  0  0  0  0
   -0.3126    2.5523    0.0000 N   0  0  0  0  0  0  0  0  0  0  0  0
    0.4019    2.9648    0.0000 S   0  0  0  0  0  0  0  0  0  0  0  0
   -0.0106    3.6793    0.0000 O   0  0  0  0  0  0  0  0  0  0  0  0
    0.8144    2.2504    0.0000 O   0  0  0  0  0  0  0  0  0  0  0  0
    1.1164    3.3773    0.0000 C   0  0  0  0  0  0  0  0  0  0  0  0
    1.8308    2.9648    0.0000 C   0  0  0  0  0  0  0  0  0  0  0  0
    2.5453    3.3773    0.0000 C   0  0  0  0  0  0  0  0  0  0  0  0
    2.5453    4.2023    0.0000 C   0  0  0  0  0  0  0  0  0  0  0  0
    1.8308    4.6148    0.0000 C   0  0  0  0  0  0  0  0  0  0  0  0
    1.1164    4.2023    0.0000 C   0  0  0  0  0  0  0  0  0  0  0  0
   -1.7415    0.0773    0.0000 C   0  0  0  0  0  0  0  0  0  0  0  0
   -1.7415   -0.7477    0.0000 C   0  0  0  0  0  0  0  0  0  0  0  0
   -1.7415   -2.3977    0.0000 C   0  0  0  0  0  0  0  0  0  0  0  0
   -2.4560   -1.9852    0.0000 C   0  0  0  0  0  0  0  0  0  0  0  0
   -3.1705   -2.3977    0.0000 C   0  0  0  0  0  0  0  0  0  0  0  0
   -3.1705   -3.2227    0.0000 C   0  0  0  0  0  0  0  0  0  0  0  0
   -2.4560   -3.6352    0.0000 N   0  0  0  0  0  0  0  0  0  0  0  0
   -1.7415   -3.2227    0.0000 C   0  0  0  0  0  0  0  0  0  0  0  0
  1  2  1  0  0  0  0
  2  3  2  0  0  0  0
  2  4  1  0  0  0  0
  4  5  1  0  0  0  0
  5  6  1  0  0  0  0
  6  7  1  0  0  0  0
  7  8  2  0  0  0  0
  8  9  1  0  0  0  0
  9 10  1  0  0  0  0
 10 11  2  0  0  0  0
 11 12  1  0  0  0  0
 12 13  1  0  0  0  0
 13 14  1  0  0  0  0
 14 15  1  0  0  0  0
 15 16  1  0  0  0  0
 16 17  2  0  0  0  0
 16 18  2  0  0  0  0
 16 19  1  0  0  0  0
 19 20  1  0  0  0  0
 20 21  2  0  0  0  0
 21 22  1  0  0  0  0
 22 23  2  0  0  0  0
 23 24  1  0  0  0  0
 19 24  2  0  0  0  0
 12 25  2  0  0  0  0
 25 26  1  0  0  0  0
  9 26  2  0  0  0  0
  8 27  1  0  0  0  0
 27 28  1  0  0  0  0
 28 29  2  0  0  0  0
 29 30  1  0  0  0  0
 30 31  2  0  0  0  0
 31 32  1  0  0  0  0
 27 32  2  0  0  0  0
M  END
>  <Name>
CHEMBL126761

>  <Target_Uniprot>
P21731

>  <CHEMBL Canonical SMILES>
OC(=O)CCC\C=C(/c1ccc(CCNS(=O)(=O)c2ccccc2)cc1)\c3cccnc3

>  <PubMed ID>
8289199

$$$$

  Marvin  08031817322D          

 27 30  0  0  0  0            999 V2000
   -1.8892   -1.0764    0.0000 C   0  0  0  0  0  0  0  0  0  0  0  0
   -1.1747   -0.6639    0.0000 S   0  0  0  0  0  0  0  0  0  0  0  0
   -1.1747    0.1611    0.0000 C   0  0  0  0  0  0  0  0  0  0  0  0
   -1.8892    0.5736    0.0000 C   0  0  0  0  0  0  0  0  0  0  0  0
   -1.8892    1.3986    0.0000 C   0  0  0  0  0  0  0  0  0  0  0  0
   -1.1747    1.8111    0.0000 N   0  0  0  0  0  0  0  0  0  0  0  0
   -0.4602    1.3986    0.0000 C   0  0  0  0  0  0  0  0  0  0  0  0
   -0.4602    0.5736    0.0000 C   0  0  0  0  0  0  0  0  0  0  0  0
    0.3244    0.3186    0.0000 C   0  0  0  0  0  0  0  0  0  0  0  0
    0.5793   -0.4660    0.0000 S   0  0  0  0  0  0  0  0  0  0  0  0
    0.0273   -1.0791    0.0000 C   0  0  0  0  0  0  0  0  0  0  0  0
   -0.7797   -0.9076    0.0000 C   0  0  0  0  0  0  0  0  0  0  0  0
   -1.3317   -1.5207    0.0000 C   0  0  0  0  0  0  0  0  0  0  0  0
   -1.0768   -2.3053    0.0000 C   0  0  0  0  0  0  0  0  0  0  0  0
   -1.6288   -2.9184    0.0000 Cl  0  0  0  0  0  0  0  0  0  0  0  0
   -0.2698   -2.4768    0.0000 C   0  0  0  0  0  0  0  0  0  0  0  0
    0.2822   -1.8637    0.0000 C   0  0  0  0  0  0  0  0  0  0  0  0
    0.8093    0.9861    0.0000 C   0  0  0  0  0  0  0  0  0  0  0  0
    1.6298    1.0723    0.0000 C   0  0  0  0  0  0  0  0  0  0  0  0
    2.1147    0.4048    0.0000 C   0  0  0  0  0  0  0  0  0  0  0  0
    1.7791   -0.3488    0.0000 C   0  0  0  0  0  0  0  0  0  0  0  0
    0.9587   -0.4351    0.0000 O   0  0  0  0  0  0  0  0  0  0  0  0
    2.2641   -1.0163    0.0000 O   0  0  0  0  0  0  0  0  0  0  0  0
    1.9653    1.8260    0.0000 C   0  0  0  0  0  0  0  0  0  0  0  0
    1.4804    2.4934    0.0000 C   0  0  0  0  0  0  0  0  0  0  0  0
    0.6599    2.4072    0.0000 C   0  0  0  0  0  0  0  0  0  0  0  0
    0.3244    1.6535    0.0000 N   0  0  0  0  0  0  0  0  0  0  0  0
  1  2  1  0  0  0  0
  2  3  1  0  0  0  0
  3  4  1  0  0  0  0
  4  5  2  0  0  0  0
  5  6  1  0  0  0  0
  6  7  2  0  0  0  0
  7  8  1  0  0  0  0
  3  8  2  0  0  0  0
  8  9  1  0  0  0  0
  9 10  1  0  0  0  0
 10 11  1  0  0  0  0
 11 12  1  0  0  0  0
 12 13  2  0  0  0  0
 13 14  1  0  0  0  0
 14 15  1  0  0  0  0
 14 16  2  0  0  0  0
 16 17  1  0  0  0  0
 11 17  2  0  0  0  0
  9 18  2  0  0  0  0
 18 19  1  0  0  0  0
 19 20  1  0  0  0  0
 20 21  1  0  0  0  0
 21 22  2  0  0  0  0
 21 23  1  0  0  0  0
 19 24  1  0  0  0  0
 24 25  1  0  0  0  0
 25 26  1  0  0  0  0
 26 27  1  0  0  0  0
  7 27  1  0  0  0  0
 18 27  1  0  0  0  0
M  END
>  <Name>
CHEMBL482548

>  <Target_Uniprot>
P21731

>  <CHEMBL Canonical SMILES>
CSc1ccnc2c1c(Sc3ccc(Cl)cc3)c4C(CC(=O)O)CCCn24

>  <PubMed ID>
19307115

$$$$

  Marvin  08031817322D          

 29 31  0  0  0  0            999 V2000
   -0.0381   -4.9008    0.0000 O   0  0  0  0  0  0  0  0  0  0  0  0
    0.7689   -4.7293    0.0000 C   0  0  0  0  0  0  0  0  0  0  0  0
    1.3209   -5.3424    0.0000 O   0  0  0  0  0  0  0  0  0  0  0  0
    1.0238   -3.9447    0.0000 C   0  0  0  0  0  0  0  0  0  0  0  0
    0.4718   -3.3316    0.0000 C   0  0  0  0  0  0  0  0  0  0  0  0
    0.7267   -2.5470    0.0000 C   0  0  0  0  0  0  0  0  0  0  0  0
    0.1747   -1.9339    0.0000 C   0  0  0  0  0  0  0  0  0  0  0  0
    0.4296   -1.1492    0.0000 O   0  0  0  0  0  0  0  0  0  0  0  0
   -0.1224   -0.5361    0.0000 N   0  0  0  0  0  0  0  0  0  0  0  0
    0.1325    0.2485    0.0000 C   0  0  0  0  0  0  0  0  0  0  0  0
   -0.4195    0.8616    0.0000 C   0  0  0  0  0  0  0  0  0  0  0  0
   -1.2265    0.6900    0.0000 C   0  0  0  0  0  0  0  0  0  0  0  0
   -1.7785    1.3031    0.0000 C   0  0  0  0  0  0  0  0  0  0  0  0
   -1.5236    2.0878    0.0000 C   0  0  0  0  0  0  0  0  0  0  0  0
   -2.0756    2.7009    0.0000 C   0  0  0  0  0  0  0  0  0  0  0  0
   -2.8826    2.5293    0.0000 C   0  0  0  0  0  0  0  0  0  0  0  0
   -3.1375    1.7447    0.0000 C   0  0  0  0  0  0  0  0  0  0  0  0
   -2.5855    1.1316    0.0000 C   0  0  0  0  0  0  0  0  0  0  0  0
   -0.1645    1.6462    0.0000 N   0  0  0  0  0  0  0  0  0  0  0  0
    0.6201    1.9011    0.0000 C   0  0  0  0  0  0  0  0  0  0  0  0
    0.6201    2.7261    0.0000 C   0  0  0  0  0  0  0  0  0  0  0  0
   -0.1645    2.9811    0.0000 N   0  0  0  0  0  0  0  0  0  0  0  0
   -0.6495    2.3136    0.0000 C   0  0  0  0  0  0  0  0  0  0  0  0
    0.9395    0.4200    0.0000 C   0  0  0  0  0  0  0  0  0  0  0  0
    1.4916   -0.1931    0.0000 C   0  0  0  0  0  0  0  0  0  0  0  0
    2.2985   -0.0216    0.0000 C   0  0  0  0  0  0  0  0  0  0  0  0
    2.5535    0.7631    0.0000 C   0  0  0  0  0  0  0  0  0  0  0  0
    2.0014    1.3762    0.0000 C   0  0  0  0  0  0  0  0  0  0  0  0
    1.1945    1.2046    0.0000 C   0  0  0  0  0  0  0  0  0  0  0  0
  1  2  1  0  0  0  0
  2  3  2  0  0  0  0
  2  4  1  0  0  0  0
  4  5  1  0  0  0  0
  5  6  1  0  0  0  0
  6  7  1  0  0  0  0
  7  8  1  0  0  0  0
  8  9  1  0  0  0  0
  9 10  2  0  0  0  0
 10 11  1  0  0  0  0
 11 12  1  0  0  0  0
 12 13  1  0  0  0  0
 13 14  1  0  0  0  0
 14 15  2  0  0  0  0
 15 16  1  0  0  0  0
 16 17  2  0  0  0  0
 17 18  1  0  0  0  0
 13 18  2  0  0  0  0
 11 19  1  0  0  0  0
 19 20  1  0  0  0  0
 20 21  2  0  0  0  0
 21 22  1  0  0  0  0
 22 23  2  0  0  0  0
 19 23  1  0  0  0  0
 10 24  1  0  0  0  0
 24 25  1  0  0  0  0
 25 26  1  0  0  0  0
 26 27  1  0  0  0  0
 27 28  1  0  0  0  0
 28 29  1  0  0  0  0
 24 29  1  0  0  0  0
M  END
>  <Name>
CHEMBL120181

>  <Target_Uniprot>
P21731

>  <CHEMBL Canonical SMILES>
OC(=O)CCCCO\N=C(\C(Cc1ccccc1)n2ccnc2)/C3CCCCC3

>  <PubMed ID>
7932586

$$$$

  Marvin  08031817322D          

 34 37  0  0  0  0            999 V2000
    0.8818   -2.7942    0.0000 C   0  0  0  0  0  0  0  0  0  0  0  0
    0.2687   -2.2422    0.0000 C   0  0  0  0  0  0  0  0  0  0  0  0
    0.8208   -1.6291    0.0000 S   0  0  0  0  0  0  0  0  0  0  0  0
    0.5658   -0.8445    0.0000 C   0  0  0  0  0  0  0  0  0  0  0  0
    1.1178   -0.2314    0.0000 C   0  0  0  0  0  0  0  0  0  0  0  0
    0.8629    0.5532    0.0000 C   0  0  0  0  0  0  0  0  0  0  0  0
    1.3478    1.2207    0.0000 C   0  0  0  0  0  0  0  0  0  0  0  0
    2.1728    1.2207    0.0000 C   0  0  0  0  0  0  0  0  0  0  0  0
    2.5853    1.9351    0.0000 C   0  0  0  0  0  0  0  0  0  0  0  0
    3.4103    1.9351    0.0000 O   0  0  0  0  0  0  0  0  0  0  0  0
    0.8629    1.8881    0.0000 O   0  0  0  0  0  0  0  0  0  0  0  0
    0.0783    1.6332    0.0000 C   0  0  0  0  0  0  0  0  0  0  0  0
   -0.6362    2.0457    0.0000 C   0  0  0  0  0  0  0  0  0  0  0  0
   -0.6362    2.8707    0.0000 O   0  0  0  0  0  0  0  0  0  0  0  0
    0.0783    3.2832    0.0000 C   0  0  0  0  0  0  0  0  0  0  0  0
    0.0783    4.1082    0.0000 C   0  0  0  0  0  0  0  0  0  0  0  0
   -0.6362    4.5207    0.0000 O   0  0  0  0  0  0  0  0  0  0  0  0
    0.7928    4.5207    0.0000 O   0  0  0  0  0  0  0  0  0  0  0  0
   -1.3507    1.6332    0.0000 C   0  0  0  0  0  0  0  0  0  0  0  0
   -1.3507    0.8082    0.0000 C   0  0  0  0  0  0  0  0  0  0  0  0
   -0.6362    0.3957    0.0000 C   0  0  0  0  0  0  0  0  0  0  0  0
    0.0783    0.8082    0.0000 C   0  0  0  0  0  0  0  0  0  0  0  0
   -0.3444   -1.6902    0.0000 C   0  0  0  0  0  0  0  0  0  0  0  0
   -0.1728   -0.8832    0.0000 C   0  0  0  0  0  0  0  0  0  0  0  0
   -0.7859   -0.3312    0.0000 C   0  0  0  0  0  0  0  0  0  0  0  0
   -1.5706   -0.5861    0.0000 C   0  0  0  0  0  0  0  0  0  0  0  0
   -1.7421   -1.3931    0.0000 C   0  0  0  0  0  0  0  0  0  0  0  0
   -1.1290   -1.9451    0.0000 C   0  0  0  0  0  0  0  0  0  0  0  0
   -0.2833   -2.8553    0.0000 C   0  0  0  0  0  0  0  0  0  0  0  0
   -1.0903   -2.6838    0.0000 C   0  0  0  0  0  0  0  0  0  0  0  0
   -1.6423   -3.2969    0.0000 C   0  0  0  0  0  0  0  0  0  0  0  0
   -1.3874   -4.0815    0.0000 C   0  0  0  0  0  0  0  0  0  0  0  0
   -0.5804   -4.2530    0.0000 C   0  0  0  0  0  0  0  0  0  0  0  0
   -0.0284   -3.6399    0.0000 C   0  0  0  0  0  0  0  0  0  0  0  0
  1  2  1  0  0  0  0
  2  3  1  0  0  0  0
  3  4  1  0  0  0  0
  4  5  1  0  0  0  0
  5  6  1  0  0  0  0
  6  7  2  0  0  0  0
  7  8  1  0  0  0  0
  8  9  1  0  0  0  0
  9 10  1  0  0  0  0
  7 11  1  0  0  0  0
 11 12  1  0  0  0  0
 12 13  1  0  0  0  0
 13 14  1  0  0  0  0
 14 15  1  0  0  0  0
 15 16  1  0  0  0  0
 16 17  2  0  0  0  0
 16 18  1  0  0  0  0
 13 19  2  0  0  0  0
 19 20  1  0  0  0  0
 20 21  2  0  0  0  0
 21 22  1  0  0  0  0
  6 22  1  0  0  0  0
 12 22  2  0  0  0  0
  2 23  1  0  0  0  0
 23 24  1  0  0  0  0
 24 25  2  0  0  0  0
 25 26  1  0  0  0  0
 26 27  2  0  0  0  0
 27 28  1  0  0  0  0
 23 28  2  0  0  0  0
  2 29  1  0  0  0  0
 29 30  1  0  0  0  0
 30 31  2  0  0  0  0
 31 32  1  0  0  0  0
 32 33  2  0  0  0  0
 33 34  1  0  0  0  0
 29 34  2  0  0  0  0
M  END
>  <Name>
CHEMBL192662

>  <Target_Uniprot>
P21731

>  <CHEMBL Canonical SMILES>
CC(SCCc1c(CCO)oc2c(OCC(=O)O)cccc12)(c3ccccc3)c4ccccc4

>  <PubMed ID>
16078846

$$$$

  Marvin  08031817322D          

 29 31  0  0  0  0            999 V2000
    0.0246   -3.8547    0.0000 O   0  0  0  0  0  0  0  0  0  0  0  0
    0.7391   -3.4422    0.0000 C   0  0  0  0  0  0  0  0  0  0  0  0
    1.4536   -3.8547    0.0000 O   0  0  0  0  0  0  0  0  0  0  0  0
    0.7391   -2.6172    0.0000 C   0  0  0  0  0  0  0  0  0  0  0  0
    1.4536   -2.2047    0.0000 C   0  0  0  0  0  0  0  0  0  0  0  0
    1.4536   -1.3797    0.0000 C   0  0  0  0  0  0  0  0  0  0  0  0
    0.7391   -0.9672    0.0000 C   0  0  0  0  0  0  0  0  0  0  0  0
    0.0246   -1.3797    0.0000 C   0  0  0  0  0  0  0  0  0  0  0  0
    0.0246   -2.2047    0.0000 C   0  0  0  0  0  0  0  0  0  0  0  0
   -0.6898   -0.9672    0.0000 C   0  0  0  0  0  0  0  0  0  0  0  0
   -0.6898   -0.1422    0.0000 S   0  0  0  0  0  0  0  0  0  0  0  0
    0.0246    0.2703    0.0000 C   0  0  0  0  0  0  0  0  0  0  0  0
    0.0246    1.0953    0.0000 C   0  0  0  0  0  0  0  0  0  0  0  0
    0.7391    1.5078    0.0000 N   0  0  0  0  0  0  0  0  0  0  0  0
    0.7391    2.3328    0.0000 S   0  0  0  0  0  0  0  0  0  0  0  0
   -0.0859    2.3328    0.0000 O   0  0  0  0  0  0  0  0  0  0  0  0
    1.5641    2.3328    0.0000 O   0  0  0  0  0  0  0  0  0  0  0  0
    0.7391    3.1578    0.0000 C   0  0  0  0  0  0  0  0  0  0  0  0
    1.4536    3.5703    0.0000 C   0  0  0  0  0  0  0  0  0  0  0  0
    1.4536    4.3953    0.0000 C   0  0  0  0  0  0  0  0  0  0  0  0
    0.7391    4.8078    0.0000 C   0  0  0  0  0  0  0  0  0  0  0  0
    0.0246    4.3953    0.0000 C   0  0  0  0  0  0  0  0  0  0  0  0
    0.0246    3.5703    0.0000 C   0  0  0  0  0  0  0  0  0  0  0  0
   -1.4043   -1.3797    0.0000 C   0  0  0  0  0  0  0  0  0  0  0  0
   -2.1188   -0.9672    0.0000 C   0  0  0  0  0  0  0  0  0  0  0  0
   -2.8332   -1.3797    0.0000 C   0  0  0  0  0  0  0  0  0  0  0  0
   -2.8332   -2.2047    0.0000 C   0  0  0  0  0  0  0  0  0  0  0  0
   -2.1188   -2.6172    0.0000 C   0  0  0  0  0  0  0  0  0  0  0  0
   -1.4043   -2.2047    0.0000 C   0  0  0  0  0  0  0  0  0  0  0  0
  1  2  1  0  0  0  0
  2  3  2  0  0  0  0
  2  4  1  0  0  0  0
  4  5  1  0  0  0  0
  5  6  2  0  0  0  0
  6  7  1  0  0  0  0
  7  8  2  0  0  0  0
  8  9  1  0  0  0  0
  4  9  2  0  0  0  0
  8 10  1  0  0  0  0
 10 11  1  0  0  0  0
 11 12  1  0  0  0  0
 12 13  1  0  0  0  0
 13 14  1  0  0  0  0
 14 15  1  0  0  0  0
 15 16  2  0  0  0  0
 15 17  2  0  0  0  0
 15 18  1  0  0  0  0
 18 19  1  0  0  0  0
 19 20  2  0  0  0  0
 20 21  1  0  0  0  0
 21 22  2  0  0  0  0
 22 23  1  0  0  0  0
 18 23  2  0  0  0  0
 10 24  1  0  0  0  0
 24 25  1  0  0  0  0
 25 26  2  0  0  0  0
 26 27  1  0  0  0  0
 27 28  2  0  0  0  0
 28 29  1  0  0  0  0
 24 29  2  0  0  0  0
M  END
>  <Name>
CHEMBL116465

>  <Target_Uniprot>
P21731

>  <CHEMBL Canonical SMILES>
OC(=O)c1cccc(c1)C(SCCNS(=O)(=O)c2ccccc2)c3ccccc3

>  <PubMed ID>
1388207

$$$$

  Marvin  08031817322D          

 21 22  0  0  0  0            999 V2000
   -1.9557   -3.6807    0.0000 O   0  0  0  0  0  0  0  0  0  0  0  0
   -1.1323   -3.6177    0.0000 C   0  0  0  0  0  0  0  0  0  0  0  0
   -0.5078   -4.1579    0.0000 O   0  0  0  0  0  0  0  0  0  0  0  0
   -0.8893   -2.8285    0.0000 C   0  0  0  0  0  0  0  0  0  0  0  0
   -1.3445   -2.1397    0.0000 C   0  0  0  0  0  0  0  0  0  0  0  0
   -1.1799   -1.3309    0.0000 C   0  0  0  0  0  0  0  0  0  0  0  0
   -1.6974   -0.6923    0.0000 C   0  0  0  0  0  0  0  0  0  0  0  0
   -1.4455    0.0808    0.0000 C   0  0  0  0  0  0  0  0  0  0  0  0
   -0.6530    0.2547    0.0000 C   0  0  0  0  0  0  0  0  0  0  0  0
   -0.3285    1.0101    0.0000 C   0  0  0  0  0  0  0  0  0  0  0  0
    0.4293    1.3169    0.0000 C   0  0  0  0  0  0  0  0  0  0  0  0
    1.0785    0.8226    0.0000 C   0  0  0  0  0  0  0  0  0  0  0  0
    1.8341    1.0979    0.0000 S   0  0  0  0  0  0  0  0  0  0  0  0
    2.5452    0.7119    0.0000 C   0  0  0  0  0  0  0  0  0  0  0  0
    3.3417    0.9046    0.0000 C   0  0  0  0  0  0  0  0  0  0  0  0
    4.0301    0.4500    0.0000 C   0  0  0  0  0  0  0  0  0  0  0  0
    0.3211    2.2028    0.0000 C   0  0  0  0  0  0  0  0  0  0  0  0
   -0.1898    2.9810    0.0000 C   0  0  0  0  0  0  0  0  0  0  0  0
   -1.0148    2.6563    0.0000 C   0  0  0  0  0  0  0  0  0  0  0  0
   -0.8611    1.7318    0.0000 C   0  0  0  0  0  0  0  0  0  0  0  0
   -0.3801    2.2265    0.0000 O   0  0  0  0  0  0  0  0  0  0  0  0
  1  2  1  0  0  0  0
  2  3  2  0  0  0  0
  2  4  1  0  0  0  0
  4  5  1  0  0  0  0
  5  6  1  0  0  0  0
  6  7  1  0  0  0  0
  7  8  2  0  0  0  0
  8  9  1  0  0  0  0
  9 10  1  0  0  0  0
 10 11  1  0  0  0  0
 11 12  1  0  0  0  0
 12 13  1  0  0  0  0
 13 14  1  0  0  0  0
 14 15  1  0  0  0  0
 15 16  2  0  0  0  0
 11 17  1  0  0  0  0
 17 18  1  0  0  0  0
 18 19  1  0  0  0  0
 19 20  1  0  0  0  0
 10 20  1  0  0  0  0
 20 21  1  0  0  0  0
 17 21  1  0  0  0  0
M  END
>  <Name>
CHEMBL177949

>  <Target_Uniprot>
P21731

>  <CHEMBL Canonical SMILES>
OC(=O)CCC\C=C/CC1C(CSCC=C)C2CCC1O2

>  <PubMed ID>
2523485

$$$$

  Marvin  08031817322D          

 32 34  0  0  0  0            999 V2000
   -3.5500   -1.4309    0.0000 O   0  0  0  0  0  0  0  0  0  0  0  0
   -3.5500   -2.2559    0.0000 C   0  0  0  0  0  0  0  0  0  0  0  0
   -4.2645   -2.6684    0.0000 O   0  0  0  0  0  0  0  0  0  0  0  0
   -2.8356   -2.6684    0.0000 C   0  0  0  0  0  0  0  0  0  0  0  0
   -2.1211   -2.2559    0.0000 C   0  0  0  0  0  0  0  0  0  0  0  0
   -1.4066   -2.6684    0.0000 C   0  0  0  0  0  0  0  0  0  0  0  0
   -0.6921   -2.2559    0.0000 C   0  0  0  0  0  0  0  0  0  0  0  0
   -0.6921   -1.4309    0.0000 C   0  0  0  0  0  0  0  0  0  0  0  0
    0.0223   -1.0184    0.0000 C   0  0  0  0  0  0  0  0  0  0  0  0
    0.0223   -0.1934    0.0000 C   0  0  0  0  0  0  0  0  0  0  0  0
   -0.6921    0.2191    0.0000 C   0  0  0  0  0  0  0  0  0  0  0  0
   -0.6921    1.0441    0.0000 C   0  0  0  0  0  0  0  0  0  0  0  0
    0.0223    1.4566    0.0000 C   0  0  0  0  0  0  0  0  0  0  0  0
    0.0223    2.2816    0.0000 N   0  0  0  0  0  0  0  0  0  0  0  0
    0.7368    2.6941    0.0000 S   0  0  0  0  0  0  0  0  0  0  0  0
    0.3243    3.4086    0.0000 O   0  0  0  0  0  0  0  0  0  0  0  0
    1.1493    1.9797    0.0000 O   0  0  0  0  0  0  0  0  0  0  0  0
    1.4513    3.1066    0.0000 C   0  0  0  0  0  0  0  0  0  0  0  0
    2.1657    2.6941    0.0000 C   0  0  0  0  0  0  0  0  0  0  0  0
    2.8802    3.1066    0.0000 C   0  0  0  0  0  0  0  0  0  0  0  0
    2.8802    3.9316    0.0000 C   0  0  0  0  0  0  0  0  0  0  0  0
    3.5947    4.3441    0.0000 Cl  0  0  0  0  0  0  0  0  0  0  0  0
    2.1657    4.3441    0.0000 C   0  0  0  0  0  0  0  0  0  0  0  0
    1.4513    3.9316    0.0000 C   0  0  0  0  0  0  0  0  0  0  0  0
   -1.4066   -0.1934    0.0000 C   0  0  0  0  0  0  0  0  0  0  0  0
   -1.4066   -1.0184    0.0000 C   0  0  0  0  0  0  0  0  0  0  0  0
    0.0223   -2.6684    0.0000 C   0  0  0  0  0  0  0  0  0  0  0  0
    0.0223   -3.4934    0.0000 C   0  0  0  0  0  0  0  0  0  0  0  0
    0.7368   -3.9059    0.0000 C   0  0  0  0  0  0  0  0  0  0  0  0
    1.4513   -3.4934    0.0000 C   0  0  0  0  0  0  0  0  0  0  0  0
    1.4513   -2.6684    0.0000 N   0  0  0  0  0  0  0  0  0  0  0  0
    0.7368   -2.2559    0.0000 C   0  0  0  0  0  0  0  0  0  0  0  0
  1  2  1  0  0  0  0
  2  3  2  0  0  0  0
  2  4  1  0  0  0  0
  4  5  1  0  0  0  0
  5  6  1  0  0  0  0
  6  7  1  0  0  0  0
  7  8  1  0  0  0  0
  8  9  1  0  0  0  0
  9 10  2  0  0  0  0
 10 11  1  0  0  0  0
 11 12  1  0  0  0  0
 12 13  1  0  0  0  0
 13 14  1  0  0  0  0
 14 15  1  0  0  0  0
 15 16  2  0  0  0  0
 15 17  2  0  0  0  0
 15 18  1  0  0  0  0
 18 19  1  0  0  0  0
 19 20  2  0  0  0  0
 20 21  1  0  0  0  0
 21 22  1  0  0  0  0
 21 23  2  0  0  0  0
 23 24  1  0  0  0  0
 18 24  2  0  0  0  0
 11 25  2  0  0  0  0
 25 26  1  0  0  0  0
  8 26  2  0  0  0  0
  7 27  1  0  0  0  0
 27 28  1  0  0  0  0
 28 29  2  0  0  0  0
 29 30  1  0  0  0  0
 30 31  2  0  0  0  0
 31 32  1  0  0  0  0
 27 32  2  0  0  0  0
M  END
>  <Name>
CHEMBL126373

>  <Target_Uniprot>
P21731

>  <CHEMBL Canonical SMILES>
OC(=O)CCCC(c1ccc(CCNS(=O)(=O)c2ccc(Cl)cc2)cc1)c3cccnc3

>  <PubMed ID>
8289199

$$$$

  Marvin  08031817322D          

 35 38  0  0  0  0            999 V2000
    0.7726   -2.8699    0.0000 C   0  0  0  0  0  0  0  0  0  0  0  0
    0.1595   -2.3179    0.0000 C   0  0  0  0  0  0  0  0  0  0  0  0
    0.7115   -1.7048    0.0000 S   0  0  0  0  0  0  0  0  0  0  0  0
    0.4566   -0.9202    0.0000 C   0  0  0  0  0  0  0  0  0  0  0  0
    1.0086   -0.3071    0.0000 C   0  0  0  0  0  0  0  0  0  0  0  0
    0.7537    0.4775    0.0000 C   0  0  0  0  0  0  0  0  0  0  0  0
    1.2386    1.1450    0.0000 C   0  0  0  0  0  0  0  0  0  0  0  0
    2.0636    1.1450    0.0000 C   0  0  0  0  0  0  0  0  0  0  0  0
    2.4761    1.8594    0.0000 C   0  0  0  0  0  0  0  0  0  0  0  0
    3.3011    1.8594    0.0000 C   0  0  0  0  0  0  0  0  0  0  0  0
    3.7136    2.5739    0.0000 O   0  0  0  0  0  0  0  0  0  0  0  0
    0.7537    1.8124    0.0000 O   0  0  0  0  0  0  0  0  0  0  0  0
   -0.0309    1.5575    0.0000 C   0  0  0  0  0  0  0  0  0  0  0  0
   -0.7454    1.9700    0.0000 C   0  0  0  0  0  0  0  0  0  0  0  0
   -0.7454    2.7950    0.0000 O   0  0  0  0  0  0  0  0  0  0  0  0
   -0.0309    3.2075    0.0000 C   0  0  0  0  0  0  0  0  0  0  0  0
   -0.0309    4.0325    0.0000 C   0  0  0  0  0  0  0  0  0  0  0  0
   -0.7454    4.4450    0.0000 O   0  0  0  0  0  0  0  0  0  0  0  0
    0.6835    4.4450    0.0000 O   0  0  0  0  0  0  0  0  0  0  0  0
   -1.4599    1.5575    0.0000 C   0  0  0  0  0  0  0  0  0  0  0  0
   -1.4599    0.7325    0.0000 C   0  0  0  0  0  0  0  0  0  0  0  0
   -0.7454    0.3200    0.0000 C   0  0  0  0  0  0  0  0  0  0  0  0
   -0.0309    0.7325    0.0000 C   0  0  0  0  0  0  0  0  0  0  0  0
   -0.4536   -1.7659    0.0000 C   0  0  0  0  0  0  0  0  0  0  0  0
   -0.2821   -0.9589    0.0000 C   0  0  0  0  0  0  0  0  0  0  0  0
   -0.8952   -0.4069    0.0000 C   0  0  0  0  0  0  0  0  0  0  0  0
   -1.6798   -0.6618    0.0000 C   0  0  0  0  0  0  0  0  0  0  0  0
   -1.8513   -1.4688    0.0000 C   0  0  0  0  0  0  0  0  0  0  0  0
   -1.2382   -2.0208    0.0000 C   0  0  0  0  0  0  0  0  0  0  0  0
   -0.3925   -2.9310    0.0000 C   0  0  0  0  0  0  0  0  0  0  0  0
   -1.1995   -2.7595    0.0000 C   0  0  0  0  0  0  0  0  0  0  0  0
   -1.7515   -3.3726    0.0000 C   0  0  0  0  0  0  0  0  0  0  0  0
   -1.4966   -4.1572    0.0000 C   0  0  0  0  0  0  0  0  0  0  0  0
   -0.6896   -4.3287    0.0000 C   0  0  0  0  0  0  0  0  0  0  0  0
   -0.1376   -3.7156    0.0000 C   0  0  0  0  0  0  0  0  0  0  0  0
  1  2  1  0  0  0  0
  2  3  1  0  0  0  0
  3  4  1  0  0  0  0
  4  5  1  0  0  0  0
  5  6  1  0  0  0  0
  6  7  2  0  0  0  0
  7  8  1  0  0  0  0
  8  9  1  0  0  0  0
  9 10  1  0  0  0  0
 10 11  1  0  0  0  0
  7 12  1  0  0  0  0
 12 13  1  0  0  0  0
 13 14  1  0  0  0  0
 14 15  1  0  0  0  0
 15 16  1  0  0  0  0
 16 17  1  0  0  0  0
 17 18  2  0  0  0  0
 17 19  1  0  0  0  0
 14 20  2  0  0  0  0
 20 21  1  0  0  0  0
 21 22  2  0  0  0  0
 22 23  1  0  0  0  0
  6 23  1  0  0  0  0
 13 23  2  0  0  0  0
  2 24  1  0  0  0  0
 24 25  1  0  0  0  0
 25 26  2  0  0  0  0
 26 27  1  0  0  0  0
 27 28  2  0  0  0  0
 28 29  1  0  0  0  0
 24 29  2  0  0  0  0
  2 30  1  0  0  0  0
 30 31  1  0  0  0  0
 31 32  2  0  0  0  0
 32 33  1  0  0  0  0
 33 34  2  0  0  0  0
 34 35  1  0  0  0  0
 30 35  2  0  0  0  0
M  END
>  <Name>
CHEMBL190840

>  <Target_Uniprot>
P21731

>  <CHEMBL Canonical SMILES>
CC(SCCc1c(CCCO)oc2c(OCC(=O)O)cccc12)(c3ccccc3)c4ccccc4

>  <PubMed ID>
16078846

$$$$

  Marvin  08031817322D          

 31 33  0  0  0  0            999 V2000
    0.2707   -4.7337    0.0000 C   0  0  0  0  0  0  0  0  0  0  0  0
   -0.4437   -4.3212    0.0000 O   0  0  0  0  0  0  0  0  0  0  0  0
   -0.4437   -3.4962    0.0000 C   0  0  0  0  0  0  0  0  0  0  0  0
    0.2707   -3.0837    0.0000 C   0  0  0  0  0  0  0  0  0  0  0  0
    0.2707   -2.2587    0.0000 C   0  0  0  0  0  0  0  0  0  0  0  0
   -0.4437   -1.8462    0.0000 C   0  0  0  0  0  0  0  0  0  0  0  0
   -0.4437   -1.0212    0.0000 C   0  0  0  0  0  0  0  0  0  0  0  0
    0.2707   -0.6087    0.0000 C   0  0  0  0  0  0  0  0  0  0  0  0
    0.2707    0.2163    0.0000 C   0  0  0  0  0  0  0  0  0  0  0  0
   -0.4437    0.6288    0.0000 N   0  0  0  0  0  0  0  0  0  0  0  0
   -0.4437    1.4538    0.0000 O   0  0  0  0  0  0  0  0  0  0  0  0
   -1.1582    1.8663    0.0000 C   0  0  0  0  0  0  0  0  0  0  0  0
   -1.1582    2.6913    0.0000 C   0  0  0  0  0  0  0  0  0  0  0  0
   -1.8727    3.1038    0.0000 C   0  0  0  0  0  0  0  0  0  0  0  0
   -1.8727    3.9288    0.0000 C   0  0  0  0  0  0  0  0  0  0  0  0
   -2.5872    4.3413    0.0000 C   0  0  0  0  0  0  0  0  0  0  0  0
   -3.3016    3.9288    0.0000 O   0  0  0  0  0  0  0  0  0  0  0  0
   -2.5872    5.1663    0.0000 O   0  0  0  0  0  0  0  0  0  0  0  0
    0.9852    0.6288    0.0000 C   0  0  0  0  0  0  0  0  0  0  0  0
    1.6997    0.2163    0.0000 C   0  0  0  0  0  0  0  0  0  0  0  0
    2.4141    0.6288    0.0000 C   0  0  0  0  0  0  0  0  0  0  0  0
    2.4141    1.4538    0.0000 C   0  0  0  0  0  0  0  0  0  0  0  0
    1.6997    1.8663    0.0000 C   0  0  0  0  0  0  0  0  0  0  0  0
    0.9852    1.4538    0.0000 C   0  0  0  0  0  0  0  0  0  0  0  0
    0.9852   -1.0212    0.0000 N   0  0  0  0  0  0  0  0  0  0  0  0
    1.0714   -1.8417    0.0000 C   0  0  0  0  0  0  0  0  0  0  0  0
    1.8784   -2.0132    0.0000 C   0  0  0  0  0  0  0  0  0  0  0  0
    2.2909   -1.2988    0.0000 N   0  0  0  0  0  0  0  0  0  0  0  0
    1.7389   -0.6857    0.0000 C   0  0  0  0  0  0  0  0  0  0  0  0
   -1.1582   -2.2587    0.0000 C   0  0  0  0  0  0  0  0  0  0  0  0
   -1.1582   -3.0837    0.0000 C   0  0  0  0  0  0  0  0  0  0  0  0
  1  2  1  0  0  0  0
  2  3  1  0  0  0  0
  3  4  1  0  0  0  0
  4  5  2  0  0  0  0
  5  6  1  0  0  0  0
  6  7  1  0  0  0  0
  7  8  1  0  0  0  0
  8  9  1  0  0  0  0
  9 10  2  0  0  0  0
 10 11  1  0  0  0  0
 11 12  1  0  0  0  0
 12 13  1  0  0  0  0
 13 14  1  0  0  0  0
 14 15  1  0  0  0  0
 15 16  1  0  0  0  0
 16 17  2  0  0  0  0
 16 18  1  0  0  0  0
  9 19  1  0  0  0  0
 19 20  1  0  0  0  0
 20 21  1  0  0  0  0
 21 22  1  0  0  0  0
 22 23  1  0  0  0  0
 23 24  1  0  0  0  0
 19 24  1  0  0  0  0
  8 25  1  0  0  0  0
 25 26  1  0  0  0  0
 26 27  2  0  0  0  0
 27 28  1  0  0  0  0
 28 29  2  0  0  0  0
 25 29  1  0  0  0  0
  6 30  2  0  0  0  0
 30 31  1  0  0  0  0
  3 31  2  0  0  0  0
M  END
>  <Name>
CHEMBL331218

>  <Target_Uniprot>
P21731

>  <CHEMBL Canonical SMILES>
COc1ccc(CC(\C(=N\OCCCCC(=O)O)\C2CCCCC2)n3ccnc3)cc1

>  <PubMed ID>
7932586

$$$$

  Marvin  08031817322D          

 30 32  0  0  0  0            999 V2000
   -0.4347   -4.4790    0.0000 C   0  0  0  0  0  0  0  0  0  0  0  0
   -0.4347   -3.6540    0.0000 C   0  0  0  0  0  0  0  0  0  0  0  0
    0.2798   -3.2415    0.0000 C   0  0  0  0  0  0  0  0  0  0  0  0
    0.2798   -2.4165    0.0000 C   0  0  0  0  0  0  0  0  0  0  0  0
   -0.4347   -2.0040    0.0000 C   0  0  0  0  0  0  0  0  0  0  0  0
   -0.4347   -1.1790    0.0000 C   0  0  0  0  0  0  0  0  0  0  0  0
    0.2798   -0.7665    0.0000 C   0  0  0  0  0  0  0  0  0  0  0  0
    0.2798    0.0585    0.0000 C   0  0  0  0  0  0  0  0  0  0  0  0
   -0.4347    0.4710    0.0000 N   0  0  0  0  0  0  0  0  0  0  0  0
   -0.4347    1.2960    0.0000 O   0  0  0  0  0  0  0  0  0  0  0  0
   -1.1492    1.7085    0.0000 C   0  0  0  0  0  0  0  0  0  0  0  0
   -1.1492    2.5335    0.0000 C   0  0  0  0  0  0  0  0  0  0  0  0
   -1.8637    2.9460    0.0000 C   0  0  0  0  0  0  0  0  0  0  0  0
   -1.8637    3.7710    0.0000 C   0  0  0  0  0  0  0  0  0  0  0  0
   -2.5781    4.1835    0.0000 C   0  0  0  0  0  0  0  0  0  0  0  0
   -3.2926    3.7710    0.0000 O   0  0  0  0  0  0  0  0  0  0  0  0
   -2.5781    5.0085    0.0000 O   0  0  0  0  0  0  0  0  0  0  0  0
    0.9942    0.4710    0.0000 C   0  0  0  0  0  0  0  0  0  0  0  0
    1.7087    0.0585    0.0000 C   0  0  0  0  0  0  0  0  0  0  0  0
    2.4232    0.4710    0.0000 C   0  0  0  0  0  0  0  0  0  0  0  0
    2.4232    1.2960    0.0000 C   0  0  0  0  0  0  0  0  0  0  0  0
    1.7087    1.7085    0.0000 C   0  0  0  0  0  0  0  0  0  0  0  0
    0.9942    1.2960    0.0000 C   0  0  0  0  0  0  0  0  0  0  0  0
    0.9942   -1.1790    0.0000 N   0  0  0  0  0  0  0  0  0  0  0  0
    1.0805   -1.9995    0.0000 C   0  0  0  0  0  0  0  0  0  0  0  0
    1.8874   -2.1710    0.0000 C   0  0  0  0  0  0  0  0  0  0  0  0
    2.2999   -1.4566    0.0000 N   0  0  0  0  0  0  0  0  0  0  0  0
    1.7479   -0.8435    0.0000 C   0  0  0  0  0  0  0  0  0  0  0  0
   -1.1492   -2.4165    0.0000 C   0  0  0  0  0  0  0  0  0  0  0  0
   -1.1492   -3.2415    0.0000 C   0  0  0  0  0  0  0  0  0  0  0  0
  1  2  1  0  0  0  0
  2  3  1  0  0  0  0
  3  4  2  0  0  0  0
  4  5  1  0  0  0  0
  5  6  1  0  0  0  0
  6  7  1  0  0  0  0
  7  8  1  0  0  0  0
  8  9  2  0  0  0  0
  9 10  1  0  0  0  0
 10 11  1  0  0  0  0
 11 12  1  0  0  0  0
 12 13  1  0  0  0  0
 13 14  1  0  0  0  0
 14 15  1  0  0  0  0
 15 16  2  0  0  0  0
 15 17  1  0  0  0  0
  8 18  1  0  0  0  0
 18 19  1  0  0  0  0
 19 20  1  0  0  0  0
 20 21  1  0  0  0  0
 21 22  1  0  0  0  0
 22 23  1  0  0  0  0
 18 23  1  0  0  0  0
  7 24  1  0  0  0  0
 24 25  1  0  0  0  0
 25 26  2  0  0  0  0
 26 27  1  0  0  0  0
 27 28  2  0  0  0  0
 24 28  1  0  0  0  0
  5 29  2  0  0  0  0
 29 30  1  0  0  0  0
  2 30  2  0  0  0  0
M  END
>  <Name>
CHEMBL120250

>  <Target_Uniprot>
P21731

>  <CHEMBL Canonical SMILES>
Cc1ccc(CC(\C(=N\OCCCCC(=O)O)\C2CCCCC2)n3ccnc3)cc1

>  <PubMed ID>
7932586

$$$$

  Marvin  08031817322D          

 21 21  0  0  0  0            999 V2000
   -3.0620   -3.9679    0.0000 O   0  0  0  0  0  0  0  0  0  0  0  0
   -2.3475   -4.3804    0.0000 C   0  0  0  0  0  0  0  0  0  0  0  0
   -2.3475   -5.2054    0.0000 O   0  0  0  0  0  0  0  0  0  0  0  0
   -1.6331   -3.9679    0.0000 C   0  0  0  0  0  0  0  0  0  0  0  0
   -1.6331   -3.1429    0.0000 C   0  0  0  0  0  0  0  0  0  0  0  0
   -0.9186   -2.7304    0.0000 C   0  0  0  0  0  0  0  0  0  0  0  0
   -0.9186   -1.9054    0.0000 C   0  0  0  0  0  0  0  0  0  0  0  0
   -0.2041   -1.4929    0.0000 C   0  0  0  0  0  0  0  0  0  0  0  0
   -0.2041   -0.6679    0.0000 C   0  0  0  0  0  0  0  0  0  0  0  0
    0.5103   -0.2554    0.0000 C   0  0  0  0  0  0  0  0  0  0  0  0
    0.5103    0.5696    0.0000 C   0  0  0  0  0  0  0  0  0  0  0  0
    1.2248    0.9821    0.0000 N   0  0  0  0  0  0  0  0  0  0  0  0
    1.2248    1.8071    0.0000 S   0  0  0  0  0  0  0  0  0  0  0  0
    2.0498    1.8071    0.0000 O   0  0  0  0  0  0  0  0  0  0  0  0
    0.3998    1.8071    0.0000 O   0  0  0  0  0  0  0  0  0  0  0  0
    1.2248    2.6321    0.0000 C   0  0  0  0  0  0  0  0  0  0  0  0
    1.9393    3.0446    0.0000 C   0  0  0  0  0  0  0  0  0  0  0  0
    1.9393    3.8696    0.0000 C   0  0  0  0  0  0  0  0  0  0  0  0
    1.2248    4.2821    0.0000 C   0  0  0  0  0  0  0  0  0  0  0  0
    0.5103    3.8696    0.0000 C   0  0  0  0  0  0  0  0  0  0  0  0
    0.5103    3.0446    0.0000 C   0  0  0  0  0  0  0  0  0  0  0  0
  1  2  1  0  0  0  0
  2  3  2  0  0  0  0
  2  4  1  0  0  0  0
  4  5  1  0  0  0  0
  5  6  1  0  0  0  0
  6  7  1  0  0  0  0
  7  8  2  0  0  0  0
  8  9  1  0  0  0  0
  9 10  1  0  0  0  0
 10 11  1  0  0  0  0
 11 12  1  0  0  0  0
 12 13  1  0  0  0  0
 13 14  2  0  0  0  0
 13 15  2  0  0  0  0
 13 16  1  0  0  0  0
 16 17  1  0  0  0  0
 17 18  2  0  0  0  0
 18 19  1  0  0  0  0
 19 20  2  0  0  0  0
 20 21  1  0  0  0  0
 16 21  2  0  0  0  0
M  END
>  <Name>
CHEMBL50785

>  <Target_Uniprot>
P21731

>  <CHEMBL Canonical SMILES>
OC(=O)CCC\C=C\CCCNS(=O)(=O)c1ccccc1

$$$$

  Marvin  08031817322D          

 33 35  0  0  0  0            999 V2000
    2.4465   -3.3625    0.0000 O   0  0  0  0  0  0  0  0  0  0  0  0
    2.4465   -2.5375    0.0000 C   0  0  0  0  0  0  0  0  0  0  0  0
    3.1610   -2.1250    0.0000 O   0  0  0  0  0  0  0  0  0  0  0  0
    1.7321   -2.1250    0.0000 C   0  0  0  0  0  0  0  0  0  0  0  0
    1.0176   -2.5375    0.0000 C   0  0  0  0  0  0  0  0  0  0  0  0
    0.3031   -2.1250    0.0000 C   0  0  0  0  0  0  0  0  0  0  0  0
   -0.4114   -2.5375    0.0000 C   0  0  0  0  0  0  0  0  0  0  0  0
   -1.1258   -2.1250    0.0000 C   0  0  0  0  0  0  0  0  0  0  0  0
   -1.1258   -1.3000    0.0000 C   0  0  0  0  0  0  0  0  0  0  0  0
   -0.4114   -0.8875    0.0000 C   0  0  0  0  0  0  0  0  0  0  0  0
   -0.4114   -0.0625    0.0000 C   0  0  0  0  0  0  0  0  0  0  0  0
   -1.1258    0.3500    0.0000 C   0  0  0  0  0  0  0  0  0  0  0  0
   -1.1258    1.1750    0.0000 C   0  0  0  0  0  0  0  0  0  0  0  0
   -0.4114    1.5875    0.0000 C   0  0  0  0  0  0  0  0  0  0  0  0
   -0.4114    2.4125    0.0000 N   0  0  0  0  0  0  0  0  0  0  0  0
    0.3031    2.8250    0.0000 S   0  0  0  0  0  0  0  0  0  0  0  0
   -0.1094    3.5395    0.0000 O   0  0  0  0  0  0  0  0  0  0  0  0
    0.7156    2.1105    0.0000 O   0  0  0  0  0  0  0  0  0  0  0  0
    1.0176    3.2375    0.0000 C   0  0  0  0  0  0  0  0  0  0  0  0
    1.7321    2.8250    0.0000 C   0  0  0  0  0  0  0  0  0  0  0  0
    2.4465    3.2375    0.0000 C   0  0  0  0  0  0  0  0  0  0  0  0
    2.4465    4.0625    0.0000 C   0  0  0  0  0  0  0  0  0  0  0  0
    3.1610    4.4750    0.0000 F   0  0  0  0  0  0  0  0  0  0  0  0
    1.7321    4.4750    0.0000 C   0  0  0  0  0  0  0  0  0  0  0  0
    1.0176    4.0625    0.0000 C   0  0  0  0  0  0  0  0  0  0  0  0
   -1.8403   -0.0625    0.0000 C   0  0  0  0  0  0  0  0  0  0  0  0
   -1.8403   -0.8875    0.0000 C   0  0  0  0  0  0  0  0  0  0  0  0
   -1.8403   -2.5375    0.0000 C   0  0  0  0  0  0  0  0  0  0  0  0
   -2.5548   -2.1250    0.0000 C   0  0  0  0  0  0  0  0  0  0  0  0
   -3.2692   -2.5375    0.0000 C   0  0  0  0  0  0  0  0  0  0  0  0
   -3.2692   -3.3625    0.0000 C   0  0  0  0  0  0  0  0  0  0  0  0
   -2.5548   -3.7750    0.0000 N   0  0  0  0  0  0  0  0  0  0  0  0
   -1.8403   -3.3625    0.0000 C   0  0  0  0  0  0  0  0  0  0  0  0
  1  2  1  0  0  0  0
  2  3  2  0  0  0  0
  2  4  1  0  0  0  0
  4  5  1  0  0  0  0
  5  6  1  0  0  0  0
  6  7  1  0  0  0  0
  7  8  2  0  0  0  0
  8  9  1  0  0  0  0
  9 10  1  0  0  0  0
 10 11  2  0  0  0  0
 11 12  1  0  0  0  0
 12 13  1  0  0  0  0
 13 14  1  0  0  0  0
 14 15  1  0  0  0  0
 15 16  1  0  0  0  0
 16 17  2  0  0  0  0
 16 18  2  0  0  0  0
 16 19  1  0  0  0  0
 19 20  1  0  0  0  0
 20 21  2  0  0  0  0
 21 22  1  0  0  0  0
 22 23  1  0  0  0  0
 22 24  2  0  0  0  0
 24 25  1  0  0  0  0
 19 25  2  0  0  0  0
 12 26  2  0  0  0  0
 26 27  1  0  0  0  0
  9 27  2  0  0  0  0
  8 28  1  0  0  0  0
 28 29  1  0  0  0  0
 29 30  2  0  0  0  0
 30 31  1  0  0  0  0
 31 32  2  0  0  0  0
 32 33  1  0  0  0  0
 28 33  2  0  0  0  0
M  END
>  <Name>
CHEMBL341094

>  <Target_Uniprot>
P21731

>  <CHEMBL Canonical SMILES>
OC(=O)CCC\C=C(/c1ccc(CCNS(=O)(=O)c2ccc(F)cc2)cc1)\c3cccnc3

>  <PubMed ID>
8289199

$$$$

  Marvin  08031817322D          

 32 35  0  0  0  0            999 V2000
   -0.1158   -0.3203    0.0000 C   0  0  0  0  0  0  0  0  0  0  0  0
   -0.9408   -0.3203    0.0000 S   0  0  0  0  0  0  0  0  0  0  0  0
   -1.7658   -0.3203    0.0000 O   0  0  0  0  0  0  0  0  0  0  0  0
   -1.3533   -1.0347    0.0000 O   0  0  0  0  0  0  0  0  0  0  0  0
   -0.9408    0.5047    0.0000 C   0  0  0  0  0  0  0  0  0  0  0  0
   -1.6552    0.9172    0.0000 C   0  0  0  0  0  0  0  0  0  0  0  0
   -1.6552    1.7422    0.0000 C   0  0  0  0  0  0  0  0  0  0  0  0
   -0.9408    2.1547    0.0000 N   0  0  0  0  0  0  0  0  0  0  0  0
   -0.2263    1.7422    0.0000 C   0  0  0  0  0  0  0  0  0  0  0  0
   -0.2263    0.9172    0.0000 C   0  0  0  0  0  0  0  0  0  0  0  0
    0.5583    0.6623    0.0000 C   0  0  0  0  0  0  0  0  0  0  0  0
    0.8133   -0.1223    0.0000 S   0  0  0  0  0  0  0  0  0  0  0  0
    0.2612   -0.7354    0.0000 C   0  0  0  0  0  0  0  0  0  0  0  0
   -0.5458   -0.5639    0.0000 C   0  0  0  0  0  0  0  0  0  0  0  0
   -1.0978   -1.1770    0.0000 C   0  0  0  0  0  0  0  0  0  0  0  0
   -0.8428   -1.9616    0.0000 C   0  0  0  0  0  0  0  0  0  0  0  0
   -0.0359   -2.1331    0.0000 C   0  0  0  0  0  0  0  0  0  0  0  0
    0.5162   -1.5200    0.0000 C   0  0  0  0  0  0  0  0  0  0  0  0
   -1.3949   -2.5747    0.0000 C   0  0  0  0  0  0  0  0  0  0  0  0
   -0.7818   -3.1267    0.0000 F   0  0  0  0  0  0  0  0  0  0  0  0
   -2.0080   -2.0227    0.0000 F   0  0  0  0  0  0  0  0  0  0  0  0
   -1.9469   -3.1878    0.0000 F   0  0  0  0  0  0  0  0  0  0  0  0
    1.0432    1.3297    0.0000 C   0  0  0  0  0  0  0  0  0  0  0  0
    1.8637    1.4160    0.0000 C   0  0  0  0  0  0  0  0  0  0  0  0
    2.3486    0.7485    0.0000 C   0  0  0  0  0  0  0  0  0  0  0  0
    2.0131   -0.0051    0.0000 C   0  0  0  0  0  0  0  0  0  0  0  0
    1.1926   -0.0914    0.0000 O   0  0  0  0  0  0  0  0  0  0  0  0
    2.4980   -0.6726    0.0000 O   0  0  0  0  0  0  0  0  0  0  0  0
    2.1993    2.1697    0.0000 C   0  0  0  0  0  0  0  0  0  0  0  0
    1.7144    2.8371    0.0000 C   0  0  0  0  0  0  0  0  0  0  0  0
    0.8939    2.7509    0.0000 C   0  0  0  0  0  0  0  0  0  0  0  0
    0.5583    1.9972    0.0000 N   0  0  0  0  0  0  0  0  0  0  0  0
  1  2  1  0  0  0  0
  2  3  2  0  0  0  0
  2  4  2  0  0  0  0
  2  5  1  0  0  0  0
  5  6  1  0  0  0  0
  6  7  2  0  0  0  0
  7  8  1  0  0  0  0
  8  9  2  0  0  0  0
  9 10  1  0  0  0  0
  5 10  2  0  0  0  0
 10 11  1  0  0  0  0
 11 12  1  0  0  0  0
 12 13  1  0  0  0  0
 13 14  1  0  0  0  0
 14 15  2  0  0  0  0
 15 16  1  0  0  0  0
 16 17  2  0  0  0  0
 17 18  1  0  0  0  0
 13 18  2  0  0  0  0
 16 19  1  0  0  0  0
 19 20  1  0  0  0  0
 19 21  1  0  0  0  0
 19 22  1  0  0  0  0
 11 23  2  0  0  0  0
 23 24  1  0  0  0  0
 24 25  1  0  0  0  0
 25 26  1  0  0  0  0
 26 27  2  0  0  0  0
 26 28  1  0  0  0  0
 24 29  1  0  0  0  0
 29 30  1  0  0  0  0
 30 31  1  0  0  0  0
 31 32  1  0  0  0  0
  9 32  1  0  0  0  0
 23 32  1  0  0  0  0
M  END
>  <Name>
CHEMBL520481

>  <Target_Uniprot>
P21731

>  <CHEMBL Canonical SMILES>
CS(=O)(=O)c1ccnc2c1c(Sc3ccc(cc3)C(F)(F)F)c4C(CC(=O)O)CCCn24

>  <PubMed ID>
19307115

$$$$

  Marvin  08031817322D          

 31 35  0  0  0  0            999 V2000
    3.0876    2.6775    0.0000 C   0  0  0  0  0  0  0  0  0  0  0  0
    2.3732    2.2650    0.0000 C   0  0  0  0  0  0  0  0  0  0  0  0
    1.6587    2.6775    0.0000 C   0  0  0  0  0  0  0  0  0  0  0  0
    0.9442    2.2650    0.0000 C   0  0  0  0  0  0  0  0  0  0  0  0
    0.1596    2.5200    0.0000 N   0  0  0  0  0  0  0  0  0  0  0  0
   -0.3253    1.8525    0.0000 C   0  0  0  0  0  0  0  0  0  0  0  0
    0.1596    1.1851    0.0000 N   0  0  0  0  0  0  0  0  0  0  0  0
   -0.0953    0.4005    0.0000 C   0  0  0  0  0  0  0  0  0  0  0  0
   -0.9023    0.2290    0.0000 C   0  0  0  0  0  0  0  0  0  0  0  0
   -1.1572   -0.5557    0.0000 C   0  0  0  0  0  0  0  0  0  0  0  0
   -1.9748   -0.6664    0.0000 C   0  0  0  0  0  0  0  0  0  0  0  0
   -2.3765    0.0542    0.0000 C   0  0  0  0  0  0  0  0  0  0  0  0
   -3.2015    0.0665    0.0000 C   0  0  0  0  0  0  0  0  0  0  0  0
   -3.6246   -0.6417    0.0000 C   0  0  0  0  0  0  0  0  0  0  0  0
   -3.2228   -1.3623    0.0000 C   0  0  0  0  0  0  0  0  0  0  0  0
   -2.3979   -1.3746    0.0000 C   0  0  0  0  0  0  0  0  0  0  0  0
   -2.1080   -2.1470    0.0000 C   0  0  0  0  0  0  0  0  0  0  0  0
   -1.3234   -2.4020    0.0000 O   0  0  0  0  0  0  0  0  0  0  0  0
   -0.6349   -1.9475    0.0000 C   0  0  0  0  0  0  0  0  0  0  0  0
    0.0397   -2.4224    0.0000 C   0  0  0  0  0  0  0  0  0  0  0  0
    0.7883   -2.0756    0.0000 C   0  0  0  0  0  0  0  0  0  0  0  0
    0.8622   -1.2539    0.0000 C   0  0  0  0  0  0  0  0  0  0  0  0
    0.1876   -0.7790    0.0000 C   0  0  0  0  0  0  0  0  0  0  0  0
   -0.5609   -1.1258    0.0000 C   0  0  0  0  0  0  0  0  0  0  0  0
    1.6108   -0.9071    0.0000 C   0  0  0  0  0  0  0  0  0  0  0  0
    1.6848   -0.0854    0.0000 O   0  0  0  0  0  0  0  0  0  0  0  0
    2.2854   -1.3820    0.0000 O   0  0  0  0  0  0  0  0  0  0  0  0
    0.9442    1.4400    0.0000 C   0  0  0  0  0  0  0  0  0  0  0  0
    1.6587    1.0275    0.0000 C   0  0  0  0  0  0  0  0  0  0  0  0
    2.3732    1.4400    0.0000 C   0  0  0  0  0  0  0  0  0  0  0  0
    3.0876    1.0275    0.0000 C   0  0  0  0  0  0  0  0  0  0  0  0
  1  2  1  0  0  0  0
  2  3  2  0  0  0  0
  3  4  1  0  0  0  0
  4  5  1  0  0  0  0
  5  6  2  0  0  0  0
  6  7  1  0  0  0  0
  7  8  1  0  0  0  0
  8  9  1  0  0  0  0
  9 10  2  0  0  0  0
 10 11  1  0  0  0  0
 11 12  1  0  0  0  0
 12 13  2  0  0  0  0
 13 14  1  0  0  0  0
 14 15  2  0  0  0  0
 15 16  1  0  0  0  0
 11 16  2  0  0  0  0
 16 17  1  0  0  0  0
 17 18  1  0  0  0  0
 18 19  1  0  0  0  0
 19 20  1  0  0  0  0
 20 21  2  0  0  0  0
 21 22  1  0  0  0  0
 22 23  2  0  0  0  0
 23 24  1  0  0  0  0
 10 24  1  0  0  0  0
 19 24  2  0  0  0  0
 22 25  1  0  0  0  0
 25 26  2  0  0  0  0
 25 27  1  0  0  0  0
  7 28  1  0  0  0  0
  4 28  2  0  0  0  0
 28 29  1  0  0  0  0
 29 30  2  0  0  0  0
  2 30  1  0  0  0  0
 30 31  1  0  0  0  0
M  END
>  <Name>
CHEMBL2111756

>  <Target_Uniprot>
P21731

>  <CHEMBL Canonical SMILES>
Cc1cc2ncn(C\C=C/3\c4ccccc4COc5ccc(cc35)C(=O)O)c2cc1C

>  <PubMed ID>
1388208

$$$$

  Marvin  08031817322D          

 32 36  0  0  0  0            999 V2000
    2.1270    3.0521    0.0000 C   0  0  0  0  0  0  0  0  0  0  0  0
    1.4125    2.6396    0.0000 C   0  0  0  0  0  0  0  0  0  0  0  0
    0.6980    3.0521    0.0000 C   0  0  0  0  0  0  0  0  0  0  0  0
   -0.0164    2.6396    0.0000 C   0  0  0  0  0  0  0  0  0  0  0  0
   -0.8010    2.8945    0.0000 N   0  0  0  0  0  0  0  0  0  0  0  0
   -1.2860    2.2271    0.0000 C   0  0  0  0  0  0  0  0  0  0  0  0
   -0.8010    1.5596    0.0000 N   0  0  0  0  0  0  0  0  0  0  0  0
   -1.0560    0.7750    0.0000 C   0  0  0  0  0  0  0  0  0  0  0  0
   -0.5040    0.1619    0.0000 C   0  0  0  0  0  0  0  0  0  0  0  0
   -0.7589   -0.6227    0.0000 C   0  0  0  0  0  0  0  0  0  0  0  0
   -1.5764   -0.7334    0.0000 C   0  0  0  0  0  0  0  0  0  0  0  0
   -1.9782   -0.0129    0.0000 C   0  0  0  0  0  0  0  0  0  0  0  0
   -2.8031   -0.0005    0.0000 C   0  0  0  0  0  0  0  0  0  0  0  0
   -3.2262   -0.7088    0.0000 C   0  0  0  0  0  0  0  0  0  0  0  0
   -2.8245   -1.4293    0.0000 C   0  0  0  0  0  0  0  0  0  0  0  0
   -1.9996   -1.4417    0.0000 C   0  0  0  0  0  0  0  0  0  0  0  0
   -1.7097   -2.2141    0.0000 C   0  0  0  0  0  0  0  0  0  0  0  0
   -0.9251   -2.4690    0.0000 O   0  0  0  0  0  0  0  0  0  0  0  0
   -0.2365   -2.0145    0.0000 C   0  0  0  0  0  0  0  0  0  0  0  0
    0.4381   -2.4894    0.0000 C   0  0  0  0  0  0  0  0  0  0  0  0
    1.1867   -2.1426    0.0000 C   0  0  0  0  0  0  0  0  0  0  0  0
    1.2606   -1.3209    0.0000 C   0  0  0  0  0  0  0  0  0  0  0  0
    2.0092   -0.9741    0.0000 C   0  0  0  0  0  0  0  0  0  0  0  0
    2.6838   -1.4490    0.0000 C   0  0  0  0  0  0  0  0  0  0  0  0
    2.6098   -2.2707    0.0000 O   0  0  0  0  0  0  0  0  0  0  0  0
    3.4324   -1.1022    0.0000 O   0  0  0  0  0  0  0  0  0  0  0  0
    0.5860   -0.8460    0.0000 C   0  0  0  0  0  0  0  0  0  0  0  0
   -0.1626   -1.1928    0.0000 C   0  0  0  0  0  0  0  0  0  0  0  0
   -0.0164    1.8146    0.0000 C   0  0  0  0  0  0  0  0  0  0  0  0
    0.6980    1.4021    0.0000 C   0  0  0  0  0  0  0  0  0  0  0  0
    1.4125    1.8146    0.0000 C   0  0  0  0  0  0  0  0  0  0  0  0
    2.1270    1.4021    0.0000 C   0  0  0  0  0  0  0  0  0  0  0  0
  1  2  1  0  0  0  0
  2  3  2  0  0  0  0
  3  4  1  0  0  0  0
  4  5  1  0  0  0  0
  5  6  2  0  0  0  0
  6  7  1  0  0  0  0
  7  8  1  0  0  0  0
  8  9  1  0  0  0  0
  9 10  2  0  0  0  0
 10 11  1  0  0  0  0
 11 12  1  0  0  0  0
 12 13  2  0  0  0  0
 13 14  1  0  0  0  0
 14 15  2  0  0  0  0
 15 16  1  0  0  0  0
 11 16  2  0  0  0  0
 16 17  1  0  0  0  0
 17 18  1  0  0  0  0
 18 19  1  0  0  0  0
 19 20  1  0  0  0  0
 20 21  2  0  0  0  0
 21 22  1  0  0  0  0
 22 23  1  0  0  0  0
 23 24  1  0  0  0  0
 24 25  2  0  0  0  0
 24 26  1  0  0  0  0
 22 27  2  0  0  0  0
 27 28  1  0  0  0  0
 10 28  1  0  0  0  0
 19 28  2  0  0  0  0
  7 29  1  0  0  0  0
  4 29  2  0  0  0  0
 29 30  1  0  0  0  0
 30 31  2  0  0  0  0
  2 31  1  0  0  0  0
 31 32  1  0  0  0  0
M  END
>  <Name>
CHEMBL114798

>  <Target_Uniprot>
P21731

>  <CHEMBL Canonical SMILES>
Cc1cc2ncn(C\C=C\3/c4ccccc4COc5ccc(CC(=O)O)cc35)c2cc1C

>  <PubMed ID>
1388208

$$$$

  Marvin  08031817322D          

 35 38  0  0  0  0            999 V2000
    2.1593   -4.3583    0.0000 O   0  0  0  0  0  0  0  0  0  0  0  0
    2.7724   -3.8063    0.0000 C   0  0  0  0  0  0  0  0  0  0  0  0
    3.5570   -4.0612    0.0000 O   0  0  0  0  0  0  0  0  0  0  0  0
    2.6008   -2.9993    0.0000 C   0  0  0  0  0  0  0  0  0  0  0  0
    1.8162   -2.7444    0.0000 C   0  0  0  0  0  0  0  0  0  0  0  0
    1.6447   -1.9374    0.0000 C   0  0  0  0  0  0  0  0  0  0  0  0
    2.2578   -1.3854    0.0000 C   0  0  0  0  0  0  0  0  0  0  0  0
    2.0862   -0.5784    0.0000 C   0  0  0  0  0  0  0  0  0  0  0  0
    1.3016   -0.3235    0.0000 C   0  0  0  0  0  0  0  0  0  0  0  0
    0.6885   -0.8755    0.0000 C   0  0  0  0  0  0  0  0  0  0  0  0
    0.8601   -1.6825    0.0000 C   0  0  0  0  0  0  0  0  0  0  0  0
    0.2470   -2.2345    0.0000 C   0  0  0  0  0  0  0  0  0  0  0  0
   -0.5600   -2.4060    0.0000 C   0  0  0  0  0  0  0  0  0  0  0  0
   -1.1120   -1.7930    0.0000 C   0  0  0  0  0  0  0  0  0  0  0  0
   -1.9190   -1.9645    0.0000 C   0  0  0  0  0  0  0  0  0  0  0  0
   -2.1740   -2.7491    0.0000 C   0  0  0  0  0  0  0  0  0  0  0  0
   -1.6219   -3.3622    0.0000 C   0  0  0  0  0  0  0  0  0  0  0  0
   -0.8149   -3.1907    0.0000 C   0  0  0  0  0  0  0  0  0  0  0  0
   -0.8571   -1.0083    0.0000 C   0  0  0  0  0  0  0  0  0  0  0  0
   -0.0725   -0.7534    0.0000 O   0  0  0  0  0  0  0  0  0  0  0  0
   -0.0725    0.0716    0.0000 C   0  0  0  0  0  0  0  0  0  0  0  0
   -0.8571    0.3265    0.0000 C   0  0  0  0  0  0  0  0  0  0  0  0
   -1.3420   -0.3409    0.0000 N   0  0  0  0  0  0  0  0  0  0  0  0
   -1.1120    1.1112    0.0000 C   0  0  0  0  0  0  0  0  0  0  0  0
   -1.9190    1.2827    0.0000 O   0  0  0  0  0  0  0  0  0  0  0  0
   -0.5600    1.7243    0.0000 N   0  0  0  0  0  0  0  0  0  0  0  0
   -0.8149    2.5089    0.0000 C   0  0  0  0  0  0  0  0  0  0  0  0
   -0.2629    3.1220    0.0000 C   0  0  0  0  0  0  0  0  0  0  0  0
   -0.5179    3.9066    0.0000 C   0  0  0  0  0  0  0  0  0  0  0  0
    0.0342    4.5197    0.0000 C   0  0  0  0  0  0  0  0  0  0  0  0
   -0.2208    5.3043    0.0000 C   0  0  0  0  0  0  0  0  0  0  0  0
   -1.0277    5.4758    0.0000 C   0  0  0  0  0  0  0  0  0  0  0  0
   -1.2827    6.2605    0.0000 Cl  0  0  0  0  0  0  0  0  0  0  0  0
   -1.5798    4.8627    0.0000 C   0  0  0  0  0  0  0  0  0  0  0  0
   -1.3248    4.0781    0.0000 C   0  0  0  0  0  0  0  0  0  0  0  0
  1  2  1  0  0  0  0
  2  3  2  0  0  0  0
  2  4  1  0  0  0  0
  4  5  1  0  0  0  0
  5  6  1  0  0  0  0
  6  7  1  0  0  0  0
  7  8  2  0  0  0  0
  8  9  1  0  0  0  0
  9 10  2  0  0  0  0
 10 11  1  0  0  0  0
  6 11  2  0  0  0  0
 11 12  1  0  0  0  0
 12 13  1  0  0  0  0
 13 14  2  0  0  0  0
 14 15  1  0  0  0  0
 15 16  1  0  0  0  0
 16 17  1  0  0  0  0
 17 18  1  0  0  0  0
 13 18  1  0  0  0  0
 14 19  1  0  0  0  0
 19 20  1  0  0  0  0
 20 21  1  0  0  0  0
 21 22  2  0  0  0  0
 22 23  1  0  0  0  0
 19 23  2  0  0  0  0
 22 24  1  0  0  0  0
 24 25  2  0  0  0  0
 24 26  1  0  0  0  0
 26 27  1  0  0  0  0
 27 28  1  0  0  0  0
 28 29  1  0  0  0  0
 29 30  1  0  0  0  0
 30 31  2  0  0  0  0
 31 32  1  0  0  0  0
 32 33  1  0  0  0  0
 32 34  2  0  0  0  0
 34 35  1  0  0  0  0
 29 35  2  0  0  0  0
M  END
>  <Name>
CHEMBL22418

>  <Target_Uniprot>
P21731

>  <CHEMBL Canonical SMILES>
OC(=O)CCc1ccccc1CC2=C(CCCC2)c3occ(n3)C(=O)NCCc4ccc(Cl)cc4

$$$$

  Marvin  08031817322D          

 23 24  0  0  0  0            999 V2000
    0.1243   -3.3000    0.0000 O   0  0  0  0  0  0  0  0  0  0  0  0
   -0.5902   -3.7125    0.0000 C   0  0  0  0  0  0  0  0  0  0  0  0
   -0.5902   -4.5375    0.0000 O   0  0  0  0  0  0  0  0  0  0  0  0
   -1.3047   -3.3000    0.0000 C   0  0  0  0  0  0  0  0  0  0  0  0
   -1.3047   -2.4750    0.0000 C   0  0  0  0  0  0  0  0  0  0  0  0
   -0.5902   -2.0625    0.0000 C   0  0  0  0  0  0  0  0  0  0  0  0
   -0.5902   -1.2375    0.0000 C   0  0  0  0  0  0  0  0  0  0  0  0
   -1.3047   -0.8250    0.0000 C   0  0  0  0  0  0  0  0  0  0  0  0
   -1.3047    0.0000    0.0000 C   0  0  0  0  0  0  0  0  0  0  0  0
   -0.5902    0.4125    0.0000 C   0  0  0  0  0  0  0  0  0  0  0  0
   -0.5902    1.2375    0.0000 N   0  0  0  0  0  0  0  0  0  0  0  0
    0.1243    1.6500    0.0000 S   0  0  0  0  0  0  0  0  0  0  0  0
   -0.2882    2.3645    0.0000 O   0  0  0  0  0  0  0  0  0  0  0  0
    0.5368    0.9355    0.0000 O   0  0  0  0  0  0  0  0  0  0  0  0
    0.8387    2.0625    0.0000 C   0  0  0  0  0  0  0  0  0  0  0  0
    1.5532    1.6500    0.0000 C   0  0  0  0  0  0  0  0  0  0  0  0
    2.2677    2.0625    0.0000 C   0  0  0  0  0  0  0  0  0  0  0  0
    2.2677    2.8875    0.0000 C   0  0  0  0  0  0  0  0  0  0  0  0
    2.9821    3.3000    0.0000 Cl  0  0  0  0  0  0  0  0  0  0  0  0
    1.5532    3.3000    0.0000 C   0  0  0  0  0  0  0  0  0  0  0  0
    0.8387    2.8875    0.0000 C   0  0  0  0  0  0  0  0  0  0  0  0
   -2.0192   -1.2375    0.0000 C   0  0  0  0  0  0  0  0  0  0  0  0
   -2.0192   -2.0625    0.0000 C   0  0  0  0  0  0  0  0  0  0  0  0
  1  2  1  0  0  0  0
  2  3  2  0  0  0  0
  2  4  1  0  0  0  0
  4  5  1  0  0  0  0
  5  6  1  0  0  0  0
  6  7  2  0  0  0  0
  7  8  1  0  0  0  0
  8  9  1  0  0  0  0
  9 10  1  0  0  0  0
 10 11  1  0  0  0  0
 11 12  1  0  0  0  0
 12 13  2  0  0  0  0
 12 14  2  0  0  0  0
 12 15  1  0  0  0  0
 15 16  1  0  0  0  0
 16 17  2  0  0  0  0
 17 18  1  0  0  0  0
 18 19  1  0  0  0  0
 18 20  2  0  0  0  0
 20 21  1  0  0  0  0
 15 21  2  0  0  0  0
  8 22  2  0  0  0  0
 22 23  1  0  0  0  0
  5 23  2  0  0  0  0
M  END
>  <Name>
CHEMBL71685

>  <Target_Uniprot>
P21731

>  <CHEMBL Canonical SMILES>
OC(=O)Cc1ccc(CCNS(=O)(=O)c2ccc(Cl)cc2)cc1

>  <PubMed ID>
1388208

$$$$

  Marvin  08031817322D          

 40 43  0  0  0  0            999 V2000
    2.8579   -3.7331    0.0000 O   0  0  0  0  0  0  0  0  0  0  0  0
    2.8579   -2.9081    0.0000 C   0  0  0  0  0  0  0  0  0  0  0  0
    3.5724   -2.4956    0.0000 O   0  0  0  0  0  0  0  0  0  0  0  0
    2.1434   -2.4956    0.0000 C   0  0  0  0  0  0  0  0  0  0  0  0
    1.4289   -2.9081    0.0000 C   0  0  0  0  0  0  0  0  0  0  0  0
    0.7145   -2.4956    0.0000 C   0  0  0  0  0  0  0  0  0  0  0  0
    0.0000   -2.9081    0.0000 C   0  0  0  0  0  0  0  0  0  0  0  0
   -0.7145   -2.4956    0.0000 C   0  0  0  0  0  0  0  0  0  0  0  0
   -0.7145   -1.6706    0.0000 C   0  0  0  0  0  0  0  0  0  0  0  0
    0.0000   -1.2581    0.0000 C   0  0  0  0  0  0  0  0  0  0  0  0
    0.0000   -0.4331    0.0000 C   0  0  0  0  0  0  0  0  0  0  0  0
   -0.7145   -0.0206    0.0000 C   0  0  0  0  0  0  0  0  0  0  0  0
   -0.7145    0.8044    0.0000 C   0  0  0  0  0  0  0  0  0  0  0  0
    0.0000    1.2169    0.0000 C   0  0  0  0  0  0  0  0  0  0  0  0
    0.0000    2.0419    0.0000 N   0  0  0  0  0  0  0  0  0  0  0  0
   -0.7145    2.4544    0.0000 C   0  0  0  0  0  0  0  0  0  0  0  0
   -1.4289    2.0419    0.0000 C   0  0  0  0  0  0  0  0  0  0  0  0
   -2.1434    2.4544    0.0000 C   0  0  0  0  0  0  0  0  0  0  0  0
   -2.8579    2.0419    0.0000 C   0  0  0  0  0  0  0  0  0  0  0  0
   -2.8579    1.2169    0.0000 C   0  0  0  0  0  0  0  0  0  0  0  0
   -2.1434    0.8044    0.0000 C   0  0  0  0  0  0  0  0  0  0  0  0
   -1.4289    1.2169    0.0000 C   0  0  0  0  0  0  0  0  0  0  0  0
    0.7145    2.4544    0.0000 S   0  0  0  0  0  0  0  0  0  0  0  0
    0.3020    3.1688    0.0000 O   0  0  0  0  0  0  0  0  0  0  0  0
    1.1270    1.7399    0.0000 O   0  0  0  0  0  0  0  0  0  0  0  0
    1.4289    2.8669    0.0000 C   0  0  0  0  0  0  0  0  0  0  0  0
    2.1434    2.4544    0.0000 C   0  0  0  0  0  0  0  0  0  0  0  0
    2.8579    2.8669    0.0000 C   0  0  0  0  0  0  0  0  0  0  0  0
    2.8579    3.6919    0.0000 C   0  0  0  0  0  0  0  0  0  0  0  0
    3.5724    4.1044    0.0000 Cl  0  0  0  0  0  0  0  0  0  0  0  0
    2.1434    4.1044    0.0000 C   0  0  0  0  0  0  0  0  0  0  0  0
    1.4289    3.6919    0.0000 C   0  0  0  0  0  0  0  0  0  0  0  0
   -1.4289   -0.4331    0.0000 C   0  0  0  0  0  0  0  0  0  0  0  0
   -1.4289   -1.2581    0.0000 C   0  0  0  0  0  0  0  0  0  0  0  0
   -1.4289   -2.9081    0.0000 C   0  0  0  0  0  0  0  0  0  0  0  0
   -2.1434   -2.4956    0.0000 C   0  0  0  0  0  0  0  0  0  0  0  0
   -2.8579   -2.9081    0.0000 C   0  0  0  0  0  0  0  0  0  0  0  0
   -2.8579   -3.7331    0.0000 C   0  0  0  0  0  0  0  0  0  0  0  0
   -2.1434   -4.1456    0.0000 N   0  0  0  0  0  0  0  0  0  0  0  0
   -1.4289   -3.7331    0.0000 C   0  0  0  0  0  0  0  0  0  0  0  0
  1  2  1  0  0  0  0
  2  3  2  0  0  0  0
  2  4  1  0  0  0  0
  4  5  1  0  0  0  0
  5  6  1  0  0  0  0
  6  7  1  0  0  0  0
  7  8  2  0  0  0  0
  8  9  1  0  0  0  0
  9 10  1  0  0  0  0
 10 11  2  0  0  0  0
 11 12  1  0  0  0  0
 12 13  1  0  0  0  0
 13 14  1  0  0  0  0
 14 15  1  0  0  0  0
 15 16  1  0  0  0  0
 16 17  1  0  0  0  0
 17 18  1  0  0  0  0
 18 19  2  0  0  0  0
 19 20  1  0  0  0  0
 20 21  2  0  0  0  0
 21 22  1  0  0  0  0
 17 22  2  0  0  0  0
 15 23  1  0  0  0  0
 23 24  2  0  0  0  0
 23 25  2  0  0  0  0
 23 26  1  0  0  0  0
 26 27  1  0  0  0  0
 27 28  2  0  0  0  0
 28 29  1  0  0  0  0
 29 30  1  0  0  0  0
 29 31  2  0  0  0  0
 31 32  1  0  0  0  0
 26 32  2  0  0  0  0
 12 33  2  0  0  0  0
 33 34  1  0  0  0  0
  9 34  2  0  0  0  0
  8 35  1  0  0  0  0
 35 36  1  0  0  0  0
 36 37  2  0  0  0  0
 37 38  1  0  0  0  0
 38 39  2  0  0  0  0
 39 40  1  0  0  0  0
 35 40  2  0  0  0  0
M  END
>  <Name>
CHEMBL129000

>  <Target_Uniprot>
P21731

>  <CHEMBL Canonical SMILES>
OC(=O)CCC\C=C(/c1ccc(CCN(Cc2ccccc2)S(=O)(=O)c3ccc(Cl)cc3)cc1)\c4cccnc4

>  <PubMed ID>
8289199

$$$$

  Marvin  08031817322D          

 27 29  0  0  0  0            999 V2000
    1.0614    1.9414    0.0000 C   0  0  0  0  0  0  0  0  0  0  0  0
    1.7759    1.5289    0.0000 C   0  0  0  0  0  0  0  0  0  0  0  0
    2.4904    1.1164    0.0000 C   0  0  0  0  0  0  0  0  0  0  0  0
    2.1884    2.2433    0.0000 C   0  0  0  0  0  0  0  0  0  0  0  0
    3.0134    2.2433    0.0000 C   0  0  0  0  0  0  0  0  0  0  0  0
    3.4259    1.5289    0.0000 O   0  0  0  0  0  0  0  0  0  0  0  0
    3.4259    2.9578    0.0000 O   0  0  0  0  0  0  0  0  0  0  0  0
    1.3634    0.8144    0.0000 C   0  0  0  0  0  0  0  0  0  0  0  0
    0.5384    0.8144    0.0000 C   0  0  0  0  0  0  0  0  0  0  0  0
    0.0535    1.4818    0.0000 N   0  0  0  0  0  0  0  0  0  0  0  0
   -0.7311    1.2269    0.0000 C   0  0  0  0  0  0  0  0  0  0  0  0
   -1.4456    1.6394    0.0000 C   0  0  0  0  0  0  0  0  0  0  0  0
   -2.1601    1.2269    0.0000 C   0  0  0  0  0  0  0  0  0  0  0  0
   -2.1601    0.4019    0.0000 C   0  0  0  0  0  0  0  0  0  0  0  0
   -1.4456   -0.0106    0.0000 C   0  0  0  0  0  0  0  0  0  0  0  0
   -0.7311    0.4019    0.0000 C   0  0  0  0  0  0  0  0  0  0  0  0
    0.0535    0.1470    0.0000 N   0  0  0  0  0  0  0  0  0  0  0  0
    0.3084   -0.6377    0.0000 C   0  0  0  0  0  0  0  0  0  0  0  0
   -0.2436   -1.2508    0.0000 C   0  0  0  0  0  0  0  0  0  0  0  0
   -1.0506   -1.0792    0.0000 C   0  0  0  0  0  0  0  0  0  0  0  0
   -1.6026   -1.6923    0.0000 C   0  0  0  0  0  0  0  0  0  0  0  0
   -1.3477   -2.4769    0.0000 C   0  0  0  0  0  0  0  0  0  0  0  0
   -0.5407   -2.6485    0.0000 C   0  0  0  0  0  0  0  0  0  0  0  0
    0.0113   -2.0354    0.0000 C   0  0  0  0  0  0  0  0  0  0  0  0
   -1.8997   -3.0900    0.0000 N   0  3  0  0  0  0  0  0  0  0  0  0
   -1.6448   -3.8747    0.0000 O   0  0  0  0  0  0  0  0  0  0  0  0
   -2.7067   -2.9185    0.0000 O   0  5  0  0  0  0  0  0  0  0  0  0
  1  2  1  0  0  0  0
  2  3  1  0  0  0  0
  2  4  1  0  0  0  0
  4  5  1  0  0  0  0
  5  6  2  0  0  0  0
  5  7  1  0  0  0  0
  2  8  1  0  0  0  0
  8  9  1  0  0  0  0
  9 10  2  0  0  0  0
 10 11  1  0  0  0  0
 11 12  1  0  0  0  0
 12 13  2  0  0  0  0
 13 14  1  0  0  0  0
 14 15  2  0  0  0  0
 15 16  1  0  0  0  0
 11 16  2  0  0  0  0
 16 17  1  0  0  0  0
  9 17  1  0  0  0  0
 17 18  1  0  0  0  0
 18 19  1  0  0  0  0
 19 20  1  0  0  0  0
 20 21  2  0  0  0  0
 21 22  1  0  0  0  0
 22 23  2  0  0  0  0
 23 24  1  0  0  0  0
 19 24  2  0  0  0  0
 22 25  1  0  0  0  0
 25 26  2  0  0  0  0
 25 27  1  0  0  0  0
M  CHG  2  25   1  27  -1
M  END
>  <Name>
CHEMBL17941

>  <Target_Uniprot>
P21731

>  <CHEMBL Canonical SMILES>
CC(C)(CC(=O)O)Cc1nc2ccccc2n1Cc3ccc(cc3)[N+](=O)[O-]

>  <PubMed ID>
8487256

$$$$

  Marvin  08031817322D          

 38 41  0  0  0  0            999 V2000
    1.5518    4.6894    0.0000 C   0  0  0  0  0  0  0  0  0  0  0  0
    1.9643    3.9749    0.0000 N   0  0  0  0  0  0  0  0  0  0  0  0
    2.7893    3.9749    0.0000 C   0  0  0  0  0  0  0  0  0  0  0  0
    1.5518    3.2605    0.0000 C   0  0  0  0  0  0  0  0  0  0  0  0
    1.9643    2.5460    0.0000 O   0  0  0  0  0  0  0  0  0  0  0  0
    0.7268    3.2605    0.0000 C   0  0  0  0  0  0  0  0  0  0  0  0
    0.2419    3.9279    0.0000 S   0  0  0  0  0  0  0  0  0  0  0  0
   -0.5427    3.6730    0.0000 C   0  0  0  0  0  0  0  0  0  0  0  0
   -1.2572    4.0855    0.0000 C   0  0  0  0  0  0  0  0  0  0  0  0
   -1.2572    4.9105    0.0000 C   0  0  0  0  0  0  0  0  0  0  0  0
   -1.9717    3.6730    0.0000 C   0  0  0  0  0  0  0  0  0  0  0  0
   -1.9717    2.8480    0.0000 C   0  0  0  0  0  0  0  0  0  0  0  0
   -2.6861    2.4355    0.0000 C   0  0  0  0  0  0  0  0  0  0  0  0
   -1.2572    2.4355    0.0000 C   0  0  0  0  0  0  0  0  0  0  0  0
   -0.5427    2.8480    0.0000 C   0  0  0  0  0  0  0  0  0  0  0  0
    0.2419    2.5930    0.0000 C   0  0  0  0  0  0  0  0  0  0  0  0
    0.4968    1.8084    0.0000 C   0  0  0  0  0  0  0  0  0  0  0  0
   -0.0552    1.1953    0.0000 C   0  0  0  0  0  0  0  0  0  0  0  0
    0.1998    0.4107    0.0000 C   0  0  0  0  0  0  0  0  0  0  0  0
    1.0067    0.2392    0.0000 C   0  0  0  0  0  0  0  0  0  0  0  0
    1.2617   -0.5455    0.0000 C   0  0  0  0  0  0  0  0  0  0  0  0
    0.7096   -1.1586    0.0000 C   0  0  0  0  0  0  0  0  0  0  0  0
    0.9646   -1.9432    0.0000 N   0  0  0  0  0  0  0  0  0  0  0  0
    0.4125   -2.5563    0.0000 C   0  0  0  0  0  0  0  0  0  0  0  0
   -0.3944   -2.3847    0.0000 O   0  0  0  0  0  0  0  0  0  0  0  0
    0.6675   -3.3409    0.0000 N   0  0  0  0  0  0  0  0  0  0  0  0
    0.1154   -3.9540    0.0000 S   0  0  0  0  0  0  0  0  0  0  0  0
    0.7285   -4.5060    0.0000 O   0  0  0  0  0  0  0  0  0  0  0  0
   -0.4976   -3.4020    0.0000 O   0  0  0  0  0  0  0  0  0  0  0  0
   -0.4366   -4.5671    0.0000 C   0  0  0  0  0  0  0  0  0  0  0  0
   -1.2436   -4.3956    0.0000 C   0  0  0  0  0  0  0  0  0  0  0  0
   -1.7956   -5.0087    0.0000 C   0  0  0  0  0  0  0  0  0  0  0  0
   -1.5407   -5.7933    0.0000 C   0  0  0  0  0  0  0  0  0  0  0  0
   -2.0927   -6.4064    0.0000 C   0  0  0  0  0  0  0  0  0  0  0  0
   -0.7337   -5.9648    0.0000 C   0  0  0  0  0  0  0  0  0  0  0  0
   -0.1816   -5.3517    0.0000 C   0  0  0  0  0  0  0  0  0  0  0  0
    1.5588    0.8523    0.0000 C   0  0  0  0  0  0  0  0  0  0  0  0
    1.3038    1.6369    0.0000 C   0  0  0  0  0  0  0  0  0  0  0  0
  1  2  1  0  0  0  0
  2  3  1  0  0  0  0
  2  4  1  0  0  0  0
  4  5  2  0  0  0  0
  4  6  1  0  0  0  0
  6  7  1  0  0  0  0
  7  8  1  0  0  0  0
  8  9  1  0  0  0  0
  9 10  1  0  0  0  0
  9 11  2  0  0  0  0
 11 12  1  0  0  0  0
 12 13  1  0  0  0  0
 12 14  2  0  0  0  0
 14 15  1  0  0  0  0
  8 15  2  0  0  0  0
 15 16  1  0  0  0  0
  6 16  2  0  0  0  0
 16 17  1  0  0  0  0
 17 18  1  0  0  0  0
 18 19  2  0  0  0  0
 19 20  1  0  0  0  0
 20 21  1  0  0  0  0
 21 22  1  0  0  0  0
 22 23  1  0  0  0  0
 23 24  1  0  0  0  0
 24 25  2  0  0  0  0
 24 26  1  0  0  0  0
 26 27  1  0  0  0  0
 27 28  2  0  0  0  0
 27 29  2  0  0  0  0
 27 30  1  0  0  0  0
 30 31  1  0  0  0  0
 31 32  2  0  0  0  0
 32 33  1  0  0  0  0
 33 34  1  0  0  0  0
 33 35  2  0  0  0  0
 35 36  1  0  0  0  0
 30 36  2  0  0  0  0
 20 37  2  0  0  0  0
 37 38  1  0  0  0  0
 17 38  2  0  0  0  0
M  END
>  <Name>
CHEMBL1644003

>  <Target_Uniprot>
P21731

>  <CHEMBL Canonical SMILES>
CN(C)C(=O)c1sc2c(C)cc(C)cc2c1c3ccc(CCNC(=O)NS(=O)(=O)c4ccc(C)cc4)cc3

>  <PubMed ID>
21208803

$$$$

  Marvin  08031817322D          

 37 39  0  0  0  0            999 V2000
    2.6455   -3.6233    0.0000 O   0  0  0  0  0  0  0  0  0  0  0  0
    2.6455   -2.7983    0.0000 C   0  0  0  0  0  0  0  0  0  0  0  0
    3.3599   -2.3858    0.0000 O   0  0  0  0  0  0  0  0  0  0  0  0
    1.9310   -2.3858    0.0000 C   0  0  0  0  0  0  0  0  0  0  0  0
    1.2165   -2.7983    0.0000 C   0  0  0  0  0  0  0  0  0  0  0  0
    0.5021   -2.3858    0.0000 C   0  0  0  0  0  0  0  0  0  0  0  0
   -0.2124   -2.7983    0.0000 C   0  0  0  0  0  0  0  0  0  0  0  0
   -0.9269   -2.3858    0.0000 C   0  0  0  0  0  0  0  0  0  0  0  0
   -0.9269   -1.5608    0.0000 C   0  0  0  0  0  0  0  0  0  0  0  0
   -0.2124   -1.1483    0.0000 C   0  0  0  0  0  0  0  0  0  0  0  0
   -0.2124   -0.3233    0.0000 C   0  0  0  0  0  0  0  0  0  0  0  0
   -0.9269    0.0892    0.0000 C   0  0  0  0  0  0  0  0  0  0  0  0
   -0.9269    0.9142    0.0000 C   0  0  0  0  0  0  0  0  0  0  0  0
   -0.2124    1.3267    0.0000 C   0  0  0  0  0  0  0  0  0  0  0  0
   -0.2124    2.1517    0.0000 N   0  0  0  0  0  0  0  0  0  0  0  0
   -0.9269    2.5642    0.0000 C   0  0  0  0  0  0  0  0  0  0  0  0
   -1.6414    2.1517    0.0000 C   0  0  0  0  0  0  0  0  0  0  0  0
   -1.6414    1.3267    0.0000 O   0  0  0  0  0  0  0  0  0  0  0  0
   -2.3558    2.5642    0.0000 O   0  0  0  0  0  0  0  0  0  0  0  0
    0.5021    2.5642    0.0000 S   0  0  0  0  0  0  0  0  0  0  0  0
    0.0896    3.2787    0.0000 O   0  0  0  0  0  0  0  0  0  0  0  0
    0.9146    1.8497    0.0000 O   0  0  0  0  0  0  0  0  0  0  0  0
    1.2165    2.9767    0.0000 C   0  0  0  0  0  0  0  0  0  0  0  0
    1.9310    2.5642    0.0000 C   0  0  0  0  0  0  0  0  0  0  0  0
    2.6455    2.9767    0.0000 C   0  0  0  0  0  0  0  0  0  0  0  0
    2.6455    3.8017    0.0000 C   0  0  0  0  0  0  0  0  0  0  0  0
    3.3599    4.2142    0.0000 Cl  0  0  0  0  0  0  0  0  0  0  0  0
    1.9310    4.2142    0.0000 C   0  0  0  0  0  0  0  0  0  0  0  0
    1.2165    3.8017    0.0000 C   0  0  0  0  0  0  0  0  0  0  0  0
   -1.6414   -0.3233    0.0000 C   0  0  0  0  0  0  0  0  0  0  0  0
   -1.6414   -1.1483    0.0000 C   0  0  0  0  0  0  0  0  0  0  0  0
   -1.6414   -2.7983    0.0000 C   0  0  0  0  0  0  0  0  0  0  0  0
   -2.3558   -2.3858    0.0000 C   0  0  0  0  0  0  0  0  0  0  0  0
   -3.0703   -2.7983    0.0000 C   0  0  0  0  0  0  0  0  0  0  0  0
   -3.0703   -3.6233    0.0000 C   0  0  0  0  0  0  0  0  0  0  0  0
   -2.3558   -4.0358    0.0000 N   0  0  0  0  0  0  0  0  0  0  0  0
   -1.6414   -3.6233    0.0000 C   0  0  0  0  0  0  0  0  0  0  0  0
  1  2  1  0  0  0  0
  2  3  2  0  0  0  0
  2  4  1  0  0  0  0
  4  5  1  0  0  0  0
  5  6  1  0  0  0  0
  6  7  1  0  0  0  0
  7  8  2  0  0  0  0
  8  9  1  0  0  0  0
  9 10  1  0  0  0  0
 10 11  2  0  0  0  0
 11 12  1  0  0  0  0
 12 13  1  0  0  0  0
 13 14  1  0  0  0  0
 14 15  1  0  0  0  0
 15 16  1  0  0  0  0
 16 17  1  0  0  0  0
 17 18  2  0  0  0  0
 17 19  1  0  0  0  0
 15 20  1  0  0  0  0
 20 21  2  0  0  0  0
 20 22  2  0  0  0  0
 20 23  1  0  0  0  0
 23 24  1  0  0  0  0
 24 25  2  0  0  0  0
 25 26  1  0  0  0  0
 26 27  1  0  0  0  0
 26 28  2  0  0  0  0
 28 29  1  0  0  0  0
 23 29  2  0  0  0  0
 12 30  2  0  0  0  0
 30 31  1  0  0  0  0
  9 31  2  0  0  0  0
  8 32  1  0  0  0  0
 32 33  1  0  0  0  0
 33 34  2  0  0  0  0
 34 35  1  0  0  0  0
 35 36  2  0  0  0  0
 36 37  1  0  0  0  0
 32 37  2  0  0  0  0
M  END
>  <Name>
CHEMBL127738

>  <Target_Uniprot>
P21731

>  <CHEMBL Canonical SMILES>
OC(=O)CCC\C=C(/c1ccc(CCN(CC(=O)O)S(=O)(=O)c2ccc(Cl)cc2)cc1)\c3cccnc3

>  <PubMed ID>
8289199

$$$$

  Marvin  08031817322D          

 31 33  0  0  0  0            999 V2000
    3.7567   -2.8875    0.0000 O   0  0  0  0  0  0  0  0  0  0  0  0
    3.7567   -2.0625    0.0000 C   0  0  0  0  0  0  0  0  0  0  0  0
    4.4712   -1.6500    0.0000 O   0  0  0  0  0  0  0  0  0  0  0  0
    3.0423   -1.6500    0.0000 C   0  0  0  0  0  0  0  0  0  0  0  0
    2.3278   -2.0625    0.0000 C   0  0  0  0  0  0  0  0  0  0  0  0
    1.6133   -1.6500    0.0000 C   0  0  0  0  0  0  0  0  0  0  0  0
    0.8989   -2.0625    0.0000 C   0  0  0  0  0  0  0  0  0  0  0  0
    0.1844   -1.6500    0.0000 C   0  0  0  0  0  0  0  0  0  0  0  0
   -0.5301   -2.0625    0.0000 C   0  0  0  0  0  0  0  0  0  0  0  0
   -1.2446   -1.6500    0.0000 C   0  0  0  0  0  0  0  0  0  0  0  0
   -1.9590   -2.0625    0.0000 C   0  0  0  0  0  0  0  0  0  0  0  0
   -1.9590   -2.8875    0.0000 C   0  0  0  0  0  0  0  0  0  0  0  0
   -1.2446   -3.3000    0.0000 N   0  0  0  0  0  0  0  0  0  0  0  0
   -0.5301   -2.8875    0.0000 C   0  0  0  0  0  0  0  0  0  0  0  0
    0.1844   -0.8250    0.0000 C   0  0  0  0  0  0  0  0  0  0  0  0
    0.8989   -0.4125    0.0000 C   0  0  0  0  0  0  0  0  0  0  0  0
    0.8989    0.4125    0.0000 C   0  0  0  0  0  0  0  0  0  0  0  0
    0.1844    0.8250    0.0000 C   0  0  0  0  0  0  0  0  0  0  0  0
   -0.5301    0.4125    0.0000 C   0  0  0  0  0  0  0  0  0  0  0  0
   -1.2446    0.8250    0.0000 N   0  0  0  0  0  0  0  0  0  0  0  0
   -1.2446    1.6500    0.0000 S   0  0  0  0  0  0  0  0  0  0  0  0
   -2.0696    1.6500    0.0000 O   0  0  0  0  0  0  0  0  0  0  0  0
   -0.4196    1.6500    0.0000 O   0  0  0  0  0  0  0  0  0  0  0  0
   -1.2446    2.4750    0.0000 C   0  0  0  0  0  0  0  0  0  0  0  0
   -0.5301    2.8875    0.0000 C   0  0  0  0  0  0  0  0  0  0  0  0
   -0.5301    3.7125    0.0000 C   0  0  0  0  0  0  0  0  0  0  0  0
   -1.2446    4.1250    0.0000 C   0  0  0  0  0  0  0  0  0  0  0  0
   -1.2446    4.9500    0.0000 Cl  0  0  0  0  0  0  0  0  0  0  0  0
   -1.9590    3.7125    0.0000 C   0  0  0  0  0  0  0  0  0  0  0  0
   -1.9590    2.8875    0.0000 C   0  0  0  0  0  0  0  0  0  0  0  0
   -0.5301   -0.4125    0.0000 C   0  0  0  0  0  0  0  0  0  0  0  0
  1  2  1  0  0  0  0
  2  3  2  0  0  0  0
  2  4  1  0  0  0  0
  4  5  1  0  0  0  0
  5  6  1  0  0  0  0
  6  7  1  0  0  0  0
  7  8  2  0  0  0  0
  8  9  1  0  0  0  0
  9 10  1  0  0  0  0
 10 11  2  0  0  0  0
 11 12  1  0  0  0  0
 12 13  2  0  0  0  0
 13 14  1  0  0  0  0
  9 14  2  0  0  0  0
  8 15  1  0  0  0  0
 15 16  1  0  0  0  0
 16 17  2  0  0  0  0
 17 18  1  0  0  0  0
 18 19  2  0  0  0  0
 19 20  1  0  0  0  0
 20 21  1  0  0  0  0
 21 22  2  0  0  0  0
 21 23  2  0  0  0  0
 21 24  1  0  0  0  0
 24 25  1  0  0  0  0
 25 26  2  0  0  0  0
 26 27  1  0  0  0  0
 27 28  1  0  0  0  0
 27 29  2  0  0  0  0
 29 30  1  0  0  0  0
 24 30  2  0  0  0  0
 19 31  1  0  0  0  0
 15 31  2  0  0  0  0
M  END
>  <Name>
CHEMBL128022

>  <Target_Uniprot>
P21731

>  <CHEMBL Canonical SMILES>
OC(=O)CCC\C=C(\c1cccnc1)/c2cccc(NS(=O)(=O)c3ccc(Cl)cc3)c2

>  <PubMed ID>
8289199

$$$$

  Marvin  08031817322D          

 33 37  0  0  0  0            999 V2000
   -2.0525   -0.2725    0.0000 O   0  0  0  0  0  0  0  0  0  0  0  0
   -1.9786   -1.0942    0.0000 C   0  0  0  0  0  0  0  0  0  0  0  0
   -2.6532   -1.5691    0.0000 O   0  0  0  0  0  0  0  0  0  0  0  0
   -1.2300   -1.4410    0.0000 C   0  0  0  0  0  0  0  0  0  0  0  0
   -1.1561   -2.2627    0.0000 C   0  0  0  0  0  0  0  0  0  0  0  0
   -0.4075   -2.6095    0.0000 C   0  0  0  0  0  0  0  0  0  0  0  0
    0.2671   -2.1346    0.0000 C   0  0  0  0  0  0  0  0  0  0  0  0
    0.9556   -2.5891    0.0000 O   0  0  0  0  0  0  0  0  0  0  0  0
    1.7403   -2.3341    0.0000 C   0  0  0  0  0  0  0  0  0  0  0  0
    2.0302   -1.5617    0.0000 C   0  0  0  0  0  0  0  0  0  0  0  0
    2.8551   -1.5494    0.0000 C   0  0  0  0  0  0  0  0  0  0  0  0
    3.2568   -0.8288    0.0000 C   0  0  0  0  0  0  0  0  0  0  0  0
    2.8337   -0.1206    0.0000 C   0  0  0  0  0  0  0  0  0  0  0  0
    2.0088   -0.1329    0.0000 C   0  0  0  0  0  0  0  0  0  0  0  0
    1.6070   -0.8535    0.0000 C   0  0  0  0  0  0  0  0  0  0  0  0
    0.7895   -0.7428    0.0000 C   0  0  0  0  0  0  0  0  0  0  0  0
    0.5345    0.0419    0.0000 C   0  0  0  0  0  0  0  0  0  0  0  0
    1.0866    0.6549    0.0000 C   0  0  0  0  0  0  0  0  0  0  0  0
    0.8316    1.4396    0.0000 N   0  0  0  0  0  0  0  0  0  0  0  0
    1.3166    2.1070    0.0000 C   0  0  0  0  0  0  0  0  0  0  0  0
    0.8316    2.7744    0.0000 N   0  0  0  0  0  0  0  0  0  0  0  0
    0.0470    2.5195    0.0000 C   0  0  0  0  0  0  0  0  0  0  0  0
   -0.6675    2.9320    0.0000 C   0  0  0  0  0  0  0  0  0  0  0  0
   -1.3819    2.5195    0.0000 C   0  0  0  0  0  0  0  0  0  0  0  0
   -1.3819    1.6945    0.0000 C   0  0  0  0  0  0  0  0  0  0  0  0
   -0.6675    1.2820    0.0000 C   0  0  0  0  0  0  0  0  0  0  0  0
    0.0470    1.6945    0.0000 C   0  0  0  0  0  0  0  0  0  0  0  0
   -2.0964    1.2820    0.0000 C   0  0  0  0  0  0  0  0  0  0  0  0
   -1.6839    0.5675    0.0000 F   0  0  0  0  0  0  0  0  0  0  0  0
   -2.5089    1.9965    0.0000 F   0  0  0  0  0  0  0  0  0  0  0  0
   -2.8109    0.8695    0.0000 F   0  0  0  0  0  0  0  0  0  0  0  0
    0.1932   -1.3129    0.0000 C   0  0  0  0  0  0  0  0  0  0  0  0
   -0.5554   -0.9661    0.0000 C   0  0  0  0  0  0  0  0  0  0  0  0
  1  2  1  0  0  0  0
  2  3  2  0  0  0  0
  2  4  1  0  0  0  0
  4  5  1  0  0  0  0
  5  6  2  0  0  0  0
  6  7  1  0  0  0  0
  7  8  1  0  0  0  0
  8  9  1  0  0  0  0
  9 10  1  0  0  0  0
 10 11  1  0  0  0  0
 11 12  2  0  0  0  0
 12 13  1  0  0  0  0
 13 14  2  0  0  0  0
 14 15  1  0  0  0  0
 10 15  2  0  0  0  0
 15 16  1  0  0  0  0
 16 17  2  0  0  0  0
 17 18  1  0  0  0  0
 18 19  1  0  0  0  0
 19 20  1  0  0  0  0
 20 21  2  0  0  0  0
 21 22  1  0  0  0  0
 22 23  1  0  0  0  0
 23 24  2  0  0  0  0
 24 25  1  0  0  0  0
 25 26  2  0  0  0  0
 26 27  1  0  0  0  0
 19 27  1  0  0  0  0
 22 27  2  0  0  0  0
 25 28  1  0  0  0  0
 28 29  1  0  0  0  0
 28 30  1  0  0  0  0
 28 31  1  0  0  0  0
 16 32  1  0  0  0  0
  7 32  2  0  0  0  0
 32 33  1  0  0  0  0
  4 33  2  0  0  0  0
M  END
>  <Name>
CHEMBL114257

>  <Target_Uniprot>
P21731

>  <CHEMBL Canonical SMILES>
OC(=O)c1ccc2OCc3ccccc3\C(=C/Cn4cnc5ccc(cc45)C(F)(F)F)\c2c1

>  <PubMed ID>
1388208

$$$$

  Marvin  08031817322D          

 33 36  0  0  0  0            999 V2000
   -1.5404   -4.3557    0.0000 O   0  0  0  0  0  0  0  0  0  0  0  0
   -1.2855   -3.5710    0.0000 C   0  0  0  0  0  0  0  0  0  0  0  0
   -0.5009   -3.3161    0.0000 C   0  0  0  0  0  0  0  0  0  0  0  0
   -0.5009   -2.4911    0.0000 C   0  0  0  0  0  0  0  0  0  0  0  0
    0.1666   -2.0062    0.0000 O   0  0  0  0  0  0  0  0  0  0  0  0
   -1.2855   -2.2362    0.0000 C   0  0  0  0  0  0  0  0  0  0  0  0
   -1.5404   -1.4515    0.0000 C   0  0  0  0  0  0  0  0  0  0  0  0
   -0.9884   -0.8384    0.0000 C   0  0  0  0  0  0  0  0  0  0  0  0
   -0.1814   -1.0100    0.0000 C   0  0  0  0  0  0  0  0  0  0  0  0
    0.3706   -0.3969    0.0000 C   0  0  0  0  0  0  0  0  0  0  0  0
    0.1157    0.3877    0.0000 C   0  0  0  0  0  0  0  0  0  0  0  0
   -0.6913    0.5593    0.0000 C   0  0  0  0  0  0  0  0  0  0  0  0
   -0.9462    1.3439    0.0000 C   0  0  0  0  0  0  0  0  0  0  0  0
   -0.3942    1.9570    0.0000 C   0  0  0  0  0  0  0  0  0  0  0  0
   -0.6492    2.7416    0.0000 N   0  0  0  0  0  0  0  0  0  0  0  0
   -0.0971    3.3547    0.0000 S   0  0  0  0  0  0  0  0  0  0  0  0
   -0.7102    3.9067    0.0000 O   0  0  0  0  0  0  0  0  0  0  0  0
    0.5160    2.8027    0.0000 O   0  0  0  0  0  0  0  0  0  0  0  0
    0.4549    3.9678    0.0000 C   0  0  0  0  0  0  0  0  0  0  0  0
    1.2619    3.7963    0.0000 C   0  0  0  0  0  0  0  0  0  0  0  0
    1.8139    4.4094    0.0000 C   0  0  0  0  0  0  0  0  0  0  0  0
    1.5590    5.1940    0.0000 C   0  0  0  0  0  0  0  0  0  0  0  0
    2.1110    5.8071    0.0000 Cl  0  0  0  0  0  0  0  0  0  0  0  0
    0.7520    5.3655    0.0000 C   0  0  0  0  0  0  0  0  0  0  0  0
    0.2000    4.7524    0.0000 C   0  0  0  0  0  0  0  0  0  0  0  0
   -1.2433   -0.0538    0.0000 C   0  0  0  0  0  0  0  0  0  0  0  0
   -1.7704   -2.9036    0.0000 C   0  0  0  0  0  0  0  0  0  0  0  0
    0.1666   -3.8010    0.0000 C   0  0  0  0  0  0  0  0  0  0  0  0
    0.0803   -4.6215    0.0000 C   0  0  0  0  0  0  0  0  0  0  0  0
    0.7478   -5.1064    0.0000 C   0  0  0  0  0  0  0  0  0  0  0  0
    1.5014   -4.7709    0.0000 C   0  0  0  0  0  0  0  0  0  0  0  0
    1.5877   -3.9504    0.0000 C   0  0  0  0  0  0  0  0  0  0  0  0
    0.9202   -3.4655    0.0000 C   0  0  0  0  0  0  0  0  0  0  0  0
  1  2  1  0  0  0  0
  2  3  2  0  0  0  0
  3  4  1  0  0  0  0
  4  5  2  0  0  0  0
  4  6  1  0  0  0  0
  6  7  1  0  0  0  0
  7  8  1  0  0  0  0
  8  9  1  0  0  0  0
  9 10  2  0  0  0  0
 10 11  1  0  0  0  0
 11 12  2  0  0  0  0
 12 13  1  0  0  0  0
 13 14  1  0  0  0  0
 14 15  1  0  0  0  0
 15 16  1  0  0  0  0
 16 17  2  0  0  0  0
 16 18  2  0  0  0  0
 16 19  1  0  0  0  0
 19 20  1  0  0  0  0
 20 21  2  0  0  0  0
 21 22  1  0  0  0  0
 22 23  1  0  0  0  0
 22 24  2  0  0  0  0
 24 25  1  0  0  0  0
 19 25  2  0  0  0  0
 12 26  1  0  0  0  0
  8 26  2  0  0  0  0
  6 27  1  0  0  0  0
  2 27  1  0  0  0  0
  3 28  1  0  0  0  0
 28 29  1  0  0  0  0
 29 30  2  0  0  0  0
 30 31  1  0  0  0  0
 31 32  2  0  0  0  0
 32 33  1  0  0  0  0
 28 33  2  0  0  0  0
M  END
>  <Name>
CHEMBL3335482

>  <Target_Uniprot>
P21731

>  <CHEMBL Canonical SMILES>
OC1=C(C(=O)C(Cc2cccc(CCNS(=O)(=O)c3ccc(Cl)cc3)c2)C1)c4ccccc4

>  <PubMed ID>
25221659

$$$$

  Marvin  08031817322D          

 41 44  0  0  0  0            999 V2000
    2.9973   -3.9640    0.0000 O   0  0  0  0  0  0  0  0  0  0  0  0
    2.9973   -3.1390    0.0000 C   0  0  0  0  0  0  0  0  0  0  0  0
    3.7118   -2.7265    0.0000 O   0  0  0  0  0  0  0  0  0  0  0  0
    2.2828   -2.7265    0.0000 C   0  0  0  0  0  0  0  0  0  0  0  0
    1.5684   -3.1390    0.0000 C   0  0  0  0  0  0  0  0  0  0  0  0
    0.8539   -2.7265    0.0000 C   0  0  0  0  0  0  0  0  0  0  0  0
    0.1394   -3.1390    0.0000 C   0  0  0  0  0  0  0  0  0  0  0  0
   -0.5751   -2.7265    0.0000 C   0  0  0  0  0  0  0  0  0  0  0  0
   -0.5751   -1.9015    0.0000 C   0  0  0  0  0  0  0  0  0  0  0  0
    0.1394   -1.4890    0.0000 C   0  0  0  0  0  0  0  0  0  0  0  0
    0.1394   -0.6640    0.0000 C   0  0  0  0  0  0  0  0  0  0  0  0
   -0.5751   -0.2515    0.0000 C   0  0  0  0  0  0  0  0  0  0  0  0
   -0.5751    0.5735    0.0000 C   0  0  0  0  0  0  0  0  0  0  0  0
    0.1394    0.9860    0.0000 C   0  0  0  0  0  0  0  0  0  0  0  0
    0.1394    1.8110    0.0000 N   0  0  0  0  0  0  0  0  0  0  0  0
   -0.5751    2.2235    0.0000 C   0  0  0  0  0  0  0  0  0  0  0  0
   -1.2895    1.8110    0.0000 C   0  0  0  0  0  0  0  0  0  0  0  0
   -2.0040    2.2235    0.0000 N   0  0  0  0  0  0  0  0  0  0  0  0
   -2.0040    3.0485    0.0000 C   0  0  0  0  0  0  0  0  0  0  0  0
   -2.7185    3.4610    0.0000 C   0  0  0  0  0  0  0  0  0  0  0  0
   -3.4329    3.0485    0.0000 O   0  0  0  0  0  0  0  0  0  0  0  0
   -3.4329    2.2235    0.0000 C   0  0  0  0  0  0  0  0  0  0  0  0
   -2.7185    1.8110    0.0000 C   0  0  0  0  0  0  0  0  0  0  0  0
    0.8539    2.2235    0.0000 S   0  0  0  0  0  0  0  0  0  0  0  0
    0.4414    2.9379    0.0000 O   0  0  0  0  0  0  0  0  0  0  0  0
    1.2664    1.5090    0.0000 O   0  0  0  0  0  0  0  0  0  0  0  0
    1.5684    2.6360    0.0000 C   0  0  0  0  0  0  0  0  0  0  0  0
    2.2828    2.2235    0.0000 C   0  0  0  0  0  0  0  0  0  0  0  0
    2.9973    2.6360    0.0000 C   0  0  0  0  0  0  0  0  0  0  0  0
    2.9973    3.4610    0.0000 C   0  0  0  0  0  0  0  0  0  0  0  0
    3.7118    3.8735    0.0000 Cl  0  0  0  0  0  0  0  0  0  0  0  0
    2.2828    3.8735    0.0000 C   0  0  0  0  0  0  0  0  0  0  0  0
    1.5684    3.4610    0.0000 C   0  0  0  0  0  0  0  0  0  0  0  0
   -1.2895   -0.6640    0.0000 C   0  0  0  0  0  0  0  0  0  0  0  0
   -1.2895   -1.4890    0.0000 C   0  0  0  0  0  0  0  0  0  0  0  0
   -1.2895   -3.1390    0.0000 C   0  0  0  0  0  0  0  0  0  0  0  0
   -2.0040   -2.7265    0.0000 C   0  0  0  0  0  0  0  0  0  0  0  0
   -2.7185   -3.1390    0.0000 C   0  0  0  0  0  0  0  0  0  0  0  0
   -2.7185   -3.9640    0.0000 C   0  0  0  0  0  0  0  0  0  0  0  0
   -2.0040   -4.3765    0.0000 N   0  0  0  0  0  0  0  0  0  0  0  0
   -1.2895   -3.9640    0.0000 C   0  0  0  0  0  0  0  0  0  0  0  0
  1  2  1  0  0  0  0
  2  3  2  0  0  0  0
  2  4  1  0  0  0  0
  4  5  1  0  0  0  0
  5  6  1  0  0  0  0
  6  7  1  0  0  0  0
  7  8  2  0  0  0  0
  8  9  1  0  0  0  0
  9 10  1  0  0  0  0
 10 11  2  0  0  0  0
 11 12  1  0  0  0  0
 12 13  1  0  0  0  0
 13 14  1  0  0  0  0
 14 15  1  0  0  0  0
 15 16  1  0  0  0  0
 16 17  1  0  0  0  0
 17 18  1  0  0  0  0
 18 19  1  0  0  0  0
 19 20  1  0  0  0  0
 20 21  1  0  0  0  0
 21 22  1  0  0  0  0
 22 23  1  0  0  0  0
 18 23  1  0  0  0  0
 15 24  1  0  0  0  0
 24 25  2  0  0  0  0
 24 26  2  0  0  0  0
 24 27  1  0  0  0  0
 27 28  1  0  0  0  0
 28 29  2  0  0  0  0
 29 30  1  0  0  0  0
 30 31  1  0  0  0  0
 30 32  2  0  0  0  0
 32 33  1  0  0  0  0
 27 33  2  0  0  0  0
 12 34  2  0  0  0  0
 34 35  1  0  0  0  0
  9 35  2  0  0  0  0
  8 36  1  0  0  0  0
 36 37  1  0  0  0  0
 37 38  2  0  0  0  0
 38 39  1  0  0  0  0
 39 40  2  0  0  0  0
 40 41  1  0  0  0  0
 36 41  2  0  0  0  0
M  END
>  <Name>
CHEMBL338419

>  <Target_Uniprot>
P21731

>  <CHEMBL Canonical SMILES>
OC(=O)CCC\C=C(/c1ccc(CCN(CCN2CCOCC2)S(=O)(=O)c3ccc(Cl)cc3)cc1)\c4cccnc4

>  <PubMed ID>
8289199

$$$$

  Marvin  08031817322D          

 32 34  0  0  0  0            999 V2000
    3.0142   -3.3645    0.0000 O   0  0  0  0  0  0  0  0  0  0  0  0
    3.0142   -2.5395    0.0000 C   0  0  0  0  0  0  0  0  0  0  0  0
    3.7286   -2.1270    0.0000 O   0  0  0  0  0  0  0  0  0  0  0  0
    2.2997   -2.1270    0.0000 C   0  0  0  0  0  0  0  0  0  0  0  0
    1.5852   -2.5395    0.0000 C   0  0  0  0  0  0  0  0  0  0  0  0
    0.8708   -2.1270    0.0000 C   0  0  0  0  0  0  0  0  0  0  0  0
    0.1563   -2.5395    0.0000 C   0  0  0  0  0  0  0  0  0  0  0  0
   -0.5582   -2.1270    0.0000 C   0  0  0  0  0  0  0  0  0  0  0  0
   -0.5582   -1.3020    0.0000 C   0  0  0  0  0  0  0  0  0  0  0  0
    0.1563   -0.8895    0.0000 C   0  0  0  0  0  0  0  0  0  0  0  0
    0.1563   -0.0645    0.0000 C   0  0  0  0  0  0  0  0  0  0  0  0
   -0.5582    0.3480    0.0000 C   0  0  0  0  0  0  0  0  0  0  0  0
   -0.5582    1.1730    0.0000 C   0  0  0  0  0  0  0  0  0  0  0  0
    0.1563    1.5855    0.0000 N   0  0  0  0  0  0  0  0  0  0  0  0
    0.1563    2.4105    0.0000 S   0  0  0  0  0  0  0  0  0  0  0  0
   -0.6687    2.4105    0.0000 O   0  0  0  0  0  0  0  0  0  0  0  0
    0.9813    2.4105    0.0000 O   0  0  0  0  0  0  0  0  0  0  0  0
    0.1563    3.2355    0.0000 C   0  0  0  0  0  0  0  0  0  0  0  0
    0.8708    3.6480    0.0000 C   0  0  0  0  0  0  0  0  0  0  0  0
    0.8708    4.4730    0.0000 C   0  0  0  0  0  0  0  0  0  0  0  0
    0.1563    4.8855    0.0000 C   0  0  0  0  0  0  0  0  0  0  0  0
    0.1563    5.7105    0.0000 Cl  0  0  0  0  0  0  0  0  0  0  0  0
   -0.5582    4.4730    0.0000 C   0  0  0  0  0  0  0  0  0  0  0  0
   -0.5582    3.6480    0.0000 C   0  0  0  0  0  0  0  0  0  0  0  0
   -1.2727   -0.0645    0.0000 C   0  0  0  0  0  0  0  0  0  0  0  0
   -1.2727   -0.8895    0.0000 C   0  0  0  0  0  0  0  0  0  0  0  0
   -1.2727   -2.5395    0.0000 C   0  0  0  0  0  0  0  0  0  0  0  0
   -1.9871   -2.1270    0.0000 C   0  0  0  0  0  0  0  0  0  0  0  0
   -2.7016   -2.5395    0.0000 C   0  0  0  0  0  0  0  0  0  0  0  0
   -2.7016   -3.3645    0.0000 C   0  0  0  0  0  0  0  0  0  0  0  0
   -1.9871   -3.7770    0.0000 N   0  0  0  0  0  0  0  0  0  0  0  0
   -1.2727   -3.3645    0.0000 C   0  0  0  0  0  0  0  0  0  0  0  0
  1  2  1  0  0  0  0
  2  3  2  0  0  0  0
  2  4  1  0  0  0  0
  4  5  1  0  0  0  0
  5  6  1  0  0  0  0
  6  7  1  0  0  0  0
  7  8  2  0  0  0  0
  8  9  1  0  0  0  0
  9 10  1  0  0  0  0
 10 11  2  0  0  0  0
 11 12  1  0  0  0  0
 12 13  1  0  0  0  0
 13 14  1  0  0  0  0
 14 15  1  0  0  0  0
 15 16  2  0  0  0  0
 15 17  2  0  0  0  0
 15 18  1  0  0  0  0
 18 19  1  0  0  0  0
 19 20  2  0  0  0  0
 20 21  1  0  0  0  0
 21 22  1  0  0  0  0
 21 23  2  0  0  0  0
 23 24  1  0  0  0  0
 18 24  2  0  0  0  0
 12 25  2  0  0  0  0
 25 26  1  0  0  0  0
  9 26  2  0  0  0  0
  8 27  1  0  0  0  0
 27 28  1  0  0  0  0
 28 29  2  0  0  0  0
 29 30  1  0  0  0  0
 30 31  2  0  0  0  0
 31 32  1  0  0  0  0
 27 32  2  0  0  0  0
M  END
>  <Name>
CHEMBL340396

>  <Target_Uniprot>
P21731

>  <CHEMBL Canonical SMILES>
OC(=O)CCC\C=C(/c1ccc(CNS(=O)(=O)c2ccc(Cl)cc2)cc1)\c3cccnc3

>  <PubMed ID>
8289199

$$$$

  Marvin  08031817322D          

 27 29  0  0  0  0            999 V2000
   -3.5524   -2.8024    0.0000 O   0  0  0  0  0  0  0  0  0  0  0  0
   -3.2974   -2.0178    0.0000 C   0  0  0  0  0  0  0  0  0  0  0  0
   -2.5128   -1.7629    0.0000 C   0  0  0  0  0  0  0  0  0  0  0  0
   -1.8454   -2.2478    0.0000 C   0  0  0  0  0  0  0  0  0  0  0  0
   -1.0917   -1.9122    0.0000 C   0  0  0  0  0  0  0  0  0  0  0  0
   -0.4243   -2.3971    0.0000 C   0  0  0  0  0  0  0  0  0  0  0  0
    0.3294   -2.0616    0.0000 C   0  0  0  0  0  0  0  0  0  0  0  0
    0.4157   -1.2411    0.0000 C   0  0  0  0  0  0  0  0  0  0  0  0
   -0.2518   -0.7562    0.0000 C   0  0  0  0  0  0  0  0  0  0  0  0
   -0.1656    0.0643    0.0000 C   0  0  0  0  0  0  0  0  0  0  0  0
    0.5881    0.3999    0.0000 C   0  0  0  0  0  0  0  0  0  0  0  0
    0.6744    1.2203    0.0000 N   0  0  0  0  0  0  0  0  0  0  0  0
    1.4280    1.5559    0.0000 S   0  0  0  0  0  0  0  0  0  0  0  0
    1.0925    2.3096    0.0000 O   0  0  0  0  0  0  0  0  0  0  0  0
    1.7636    0.8022    0.0000 O   0  0  0  0  0  0  0  0  0  0  0  0
    2.1817    1.8915    0.0000 C   0  0  0  0  0  0  0  0  0  0  0  0
    2.8491    1.4065    0.0000 C   0  0  0  0  0  0  0  0  0  0  0  0
    3.6028    1.7421    0.0000 C   0  0  0  0  0  0  0  0  0  0  0  0
    3.6891    2.5626    0.0000 C   0  0  0  0  0  0  0  0  0  0  0  0
    4.4427    2.8981    0.0000 Cl  0  0  0  0  0  0  0  0  0  0  0  0
    3.0216    3.0475    0.0000 C   0  0  0  0  0  0  0  0  0  0  0  0
    2.2679    2.7119    0.0000 C   0  0  0  0  0  0  0  0  0  0  0  0
   -1.0055   -1.0917    0.0000 C   0  0  0  0  0  0  0  0  0  0  0  0
   -2.5128   -0.9379    0.0000 C   0  0  0  0  0  0  0  0  0  0  0  0
   -3.2974   -0.6829    0.0000 C   0  0  0  0  0  0  0  0  0  0  0  0
   -3.7824   -1.3504    0.0000 C   0  0  0  0  0  0  0  0  0  0  0  0
   -4.6074   -1.3504    0.0000 O   0  0  0  0  0  0  0  0  0  0  0  0
  1  2  1  0  0  0  0
  2  3  2  0  0  0  0
  3  4  1  0  0  0  0
  4  5  1  0  0  0  0
  5  6  1  0  0  0  0
  6  7  2  0  0  0  0
  7  8  1  0  0  0  0
  8  9  2  0  0  0  0
  9 10  1  0  0  0  0
 10 11  1  0  0  0  0
 11 12  1  0  0  0  0
 12 13  1  0  0  0  0
 13 14  2  0  0  0  0
 13 15  2  0  0  0  0
 13 16  1  0  0  0  0
 16 17  1  0  0  0  0
 17 18  2  0  0  0  0
 18 19  1  0  0  0  0
 19 20  1  0  0  0  0
 19 21  2  0  0  0  0
 21 22  1  0  0  0  0
 16 22  2  0  0  0  0
  9 23  1  0  0  0  0
  5 23  2  0  0  0  0
  3 24  1  0  0  0  0
 24 25  1  0  0  0  0
 25 26  1  0  0  0  0
  2 26  1  0  0  0  0
 26 27  2  0  0  0  0
M  END
>  <Name>
CHEMBL3326602

>  <Target_Uniprot>
P21731

>  <CHEMBL Canonical SMILES>
OC1=C(Cc2cccc(CCNS(=O)(=O)c3ccc(Cl)cc3)c2)CCC1=O

>  <PubMed ID>
25127105

$$$$

  Marvin  08031817322D          

 34 36  0  0  0  0            999 V2000
   -1.5340   -5.2290    0.0000 C   0  0  0  0  0  0  0  0  0  0  0  0
   -2.2485   -4.8165    0.0000 O   0  0  0  0  0  0  0  0  0  0  0  0
   -2.2485   -3.9915    0.0000 C   0  0  0  0  0  0  0  0  0  0  0  0
   -1.5340   -3.5790    0.0000 C   0  0  0  0  0  0  0  0  0  0  0  0
   -1.5340   -2.7540    0.0000 C   0  0  0  0  0  0  0  0  0  0  0  0
   -2.2485   -2.3415    0.0000 C   0  0  0  0  0  0  0  0  0  0  0  0
   -2.9630   -2.7540    0.0000 C   0  0  0  0  0  0  0  0  0  0  0  0
   -2.9630   -3.5790    0.0000 C   0  0  0  0  0  0  0  0  0  0  0  0
   -2.2485   -1.5165    0.0000 S   0  0  0  0  0  0  0  0  0  0  0  0
   -3.0735   -1.5165    0.0000 O   0  0  0  0  0  0  0  0  0  0  0  0
   -1.4235   -1.5165    0.0000 O   0  0  0  0  0  0  0  0  0  0  0  0
   -2.2485   -0.6915    0.0000 N   0  0  0  0  0  0  0  0  0  0  0  0
   -1.5340   -0.2790    0.0000 C   0  0  0  0  0  0  0  0  0  0  0  0
   -1.5340    0.5460    0.0000 C   0  0  0  0  0  0  0  0  0  0  0  0
   -0.8195    0.9585    0.0000 C   0  0  0  0  0  0  0  0  0  0  0  0
   -0.1051    0.5460    0.0000 C   0  0  0  0  0  0  0  0  0  0  0  0
    0.6094    0.9585    0.0000 C   0  0  0  0  0  0  0  0  0  0  0  0
    0.6094    1.7835    0.0000 C   0  0  0  0  0  0  0  0  0  0  0  0
   -0.1051    2.1960    0.0000 C   0  0  0  0  0  0  0  0  0  0  0  0
   -0.8195    1.7835    0.0000 C   0  0  0  0  0  0  0  0  0  0  0  0
    1.3239    2.1960    0.0000 C   0  0  0  0  0  0  0  0  0  0  0  0
    2.0383    1.7835    0.0000 C   0  0  0  0  0  0  0  0  0  0  0  0
    2.0383    0.9585    0.0000 C   0  0  0  0  0  0  0  0  0  0  0  0
    2.7528    0.5460    0.0000 C   0  0  0  0  0  0  0  0  0  0  0  0
    2.7528   -0.2790    0.0000 C   0  0  0  0  0  0  0  0  0  0  0  0
    3.4673   -0.6915    0.0000 C   0  0  0  0  0  0  0  0  0  0  0  0
    4.1818   -0.2790    0.0000 O   0  0  0  0  0  0  0  0  0  0  0  0
    3.4673   -1.5165    0.0000 O   0  0  0  0  0  0  0  0  0  0  0  0
    1.3239    3.0210    0.0000 C   0  0  0  0  0  0  0  0  0  0  0  0
    2.0383    3.4335    0.0000 C   0  0  0  0  0  0  0  0  0  0  0  0
    2.0383    4.2585    0.0000 C   0  0  0  0  0  0  0  0  0  0  0  0
    1.3239    4.6710    0.0000 C   0  0  0  0  0  0  0  0  0  0  0  0
    0.6094    4.2585    0.0000 N   0  0  0  0  0  0  0  0  0  0  0  0
    0.6094    3.4335    0.0000 C   0  0  0  0  0  0  0  0  0  0  0  0
  1  2  1  0  0  0  0
  2  3  1  0  0  0  0
  3  4  1  0  0  0  0
  4  5  2  0  0  0  0
  5  6  1  0  0  0  0
  6  7  2  0  0  0  0
  7  8  1  0  0  0  0
  3  8  2  0  0  0  0
  6  9  1  0  0  0  0
  9 10  2  0  0  0  0
  9 11  2  0  0  0  0
  9 12  1  0  0  0  0
 12 13  1  0  0  0  0
 13 14  1  0  0  0  0
 14 15  1  0  0  0  0
 15 16  1  0  0  0  0
 16 17  2  0  0  0  0
 17 18  1  0  0  0  0
 18 19  2  0  0  0  0
 19 20  1  0  0  0  0
 15 20  2  0  0  0  0
 18 21  1  0  0  0  0
 21 22  2  0  0  0  0
 22 23  1  0  0  0  0
 23 24  1  0  0  0  0
 24 25  1  0  0  0  0
 25 26  1  0  0  0  0
 26 27  2  0  0  0  0
 26 28  1  0  0  0  0
 21 29  1  0  0  0  0
 29 30  1  0  0  0  0
 30 31  2  0  0  0  0
 31 32  1  0  0  0  0
 32 33  2  0  0  0  0
 33 34  1  0  0  0  0
 29 34  2  0  0  0  0
M  END
>  <Name>
CHEMBL338241

>  <Target_Uniprot>
P21731

>  <CHEMBL Canonical SMILES>
COc1ccc(cc1)S(=O)(=O)NCCc2ccc(cc2)\C(=C/CCCC(=O)O)\c3cccnc3

>  <PubMed ID>
8289199

$$$$

  Marvin  08031817322D          

 26 29  0  0  0  0            999 V2000
   -0.2552    1.4005    0.0000 O   0  0  0  0  0  0  0  0  0  0  0  0
    0.5416    1.6140    0.0000 C   0  0  0  0  0  0  0  0  0  0  0  0
    0.3281    2.4109    0.0000 O   0  0  0  0  0  0  0  0  0  0  0  0
    1.3385    1.4005    0.0000 C   0  0  0  0  0  0  0  0  0  0  0  0
    2.1354    1.1869    0.0000 C   0  0  0  0  0  0  0  0  0  0  0  0
    1.7229    0.4725    0.0000 C   0  0  0  0  0  0  0  0  0  0  0  0
    0.8979    0.4725    0.0000 C   0  0  0  0  0  0  0  0  0  0  0  0
    0.4130    1.1399    0.0000 N   0  0  0  0  0  0  0  0  0  0  0  0
   -0.3716    0.8850    0.0000 C   0  0  0  0  0  0  0  0  0  0  0  0
   -1.0861    1.2975    0.0000 C   0  0  0  0  0  0  0  0  0  0  0  0
   -1.8006    0.8850    0.0000 C   0  0  0  0  0  0  0  0  0  0  0  0
   -2.5150    1.2975    0.0000 F   0  0  0  0  0  0  0  0  0  0  0  0
   -1.8006    0.0600    0.0000 C   0  0  0  0  0  0  0  0  0  0  0  0
   -1.0861   -0.3525    0.0000 C   0  0  0  0  0  0  0  0  0  0  0  0
   -0.3716    0.0600    0.0000 C   0  0  0  0  0  0  0  0  0  0  0  0
    0.4130   -0.1950    0.0000 N   0  0  0  0  0  0  0  0  0  0  0  0
    0.6679   -0.9796    0.0000 C   0  0  0  0  0  0  0  0  0  0  0  0
    0.1159   -1.5927    0.0000 C   0  0  0  0  0  0  0  0  0  0  0  0
   -0.6911   -1.4212    0.0000 C   0  0  0  0  0  0  0  0  0  0  0  0
   -1.2431   -2.0343    0.0000 C   0  0  0  0  0  0  0  0  0  0  0  0
   -0.9882   -2.8189    0.0000 C   0  0  0  0  0  0  0  0  0  0  0  0
   -1.5402   -3.4320    0.0000 Cl  0  0  0  0  0  0  0  0  0  0  0  0
   -0.1812   -2.9904    0.0000 C   0  0  0  0  0  0  0  0  0  0  0  0
    0.3708   -2.3773    0.0000 C   0  0  0  0  0  0  0  0  0  0  0  0
    2.8499    1.5994    0.0000 C   0  0  0  0  0  0  0  0  0  0  0  0
    2.1354    2.0119    0.0000 C   0  0  0  0  0  0  0  0  0  0  0  0
  1  2  1  0  0  0  0
  2  3  2  0  0  0  0
  2  4  1  0  0  0  0
  4  5  1  0  0  0  0
  5  6  1  0  0  0  0
  6  7  1  0  0  0  0
  7  8  2  0  0  0  0
  8  9  1  0  0  0  0
  9 10  1  0  0  0  0
 10 11  2  0  0  0  0
 11 12  1  0  0  0  0
 11 13  1  0  0  0  0
 13 14  2  0  0  0  0
 14 15  1  0  0  0  0
  9 15  2  0  0  0  0
 15 16  1  0  0  0  0
  7 16  1  0  0  0  0
 16 17  1  0  0  0  0
 17 18  1  0  0  0  0
 18 19  1  0  0  0  0
 19 20  2  0  0  0  0
 20 21  1  0  0  0  0
 21 22  1  0  0  0  0
 21 23  2  0  0  0  0
 23 24  1  0  0  0  0
 18 24  2  0  0  0  0
  5 25  1  0  0  0  0
 25 26  1  0  0  0  0
  5 26  1  0  0  0  0
M  END
>  <Name>
CHEMBL18232

>  <Target_Uniprot>
P21731

>  <CHEMBL Canonical SMILES>
OC(=O)CC1(Cc2nc3cc(F)ccc3n2Cc4ccc(Cl)cc4)CC1

>  <PubMed ID>
8487256

$$$$

  Marvin  08031817322D          

 29 32  0  0  0  0            999 V2000
    2.6534    2.6542    0.0000 O   0  0  0  0  0  0  0  0  0  0  0  0
    1.8465    2.4827    0.0000 C   0  0  0  0  0  0  0  0  0  0  0  0
    1.2944    3.0957    0.0000 O   0  0  0  0  0  0  0  0  0  0  0  0
    1.5915    1.6980    0.0000 C   0  0  0  0  0  0  0  0  0  0  0  0
    2.1436    1.0849    0.0000 C   0  0  0  0  0  0  0  0  0  0  0  0
    1.8886    0.3003    0.0000 N   0  0  0  0  0  0  0  0  0  0  0  0
    1.1040    0.0454    0.0000 C   0  0  0  0  0  0  0  0  0  0  0  0
    0.3895    0.4579    0.0000 C   0  0  0  0  0  0  0  0  0  0  0  0
   -0.3249    0.0454    0.0000 C   0  0  0  0  0  0  0  0  0  0  0  0
   -0.3249   -0.7796    0.0000 C   0  0  0  0  0  0  0  0  0  0  0  0
    0.3895   -1.1921    0.0000 C   0  0  0  0  0  0  0  0  0  0  0  0
    1.1040   -0.7796    0.0000 C   0  0  0  0  0  0  0  0  0  0  0  0
    1.8886   -1.0346    0.0000 C   0  0  0  0  0  0  0  0  0  0  0  0
    2.2242   -1.7882    0.0000 C   0  0  0  0  0  0  0  0  0  0  0  0
    3.0447   -1.8745    0.0000 C   0  0  0  0  0  0  0  0  0  0  0  0
    3.5296   -1.2070    0.0000 C   0  0  0  0  0  0  0  0  0  0  0  0
    3.1940   -0.4534    0.0000 C   0  0  0  0  0  0  0  0  0  0  0  0
    2.3735   -0.3671    0.0000 C   0  0  0  0  0  0  0  0  0  0  0  0
   -1.0394   -1.1921    0.0000 N   0  0  0  0  0  0  0  0  0  0  0  0
   -1.7539   -0.7796    0.0000 S   0  0  0  0  0  0  0  0  0  0  0  0
   -2.1664   -1.4941    0.0000 O   0  0  0  0  0  0  0  0  0  0  0  0
   -1.3414   -0.0652    0.0000 O   0  0  0  0  0  0  0  0  0  0  0  0
   -2.4684   -0.3671    0.0000 C   0  0  0  0  0  0  0  0  0  0  0  0
   -2.4684    0.4579    0.0000 C   0  0  0  0  0  0  0  0  0  0  0  0
   -3.1828    0.8704    0.0000 C   0  0  0  0  0  0  0  0  0  0  0  0
   -3.8973    0.4579    0.0000 C   0  0  0  0  0  0  0  0  0  0  0  0
   -4.6118    0.8704    0.0000 F   0  0  0  0  0  0  0  0  0  0  0  0
   -3.8973   -0.3671    0.0000 C   0  0  0  0  0  0  0  0  0  0  0  0
   -3.1828   -0.7796    0.0000 C   0  0  0  0  0  0  0  0  0  0  0  0
  1  2  1  0  0  0  0
  2  3  2  0  0  0  0
  2  4  1  0  0  0  0
  4  5  1  0  0  0  0
  5  6  1  0  0  0  0
  6  7  1  0  0  0  0
  7  8  1  0  0  0  0
  8  9  1  0  0  0  0
  9 10  1  0  0  0  0
 10 11  1  0  0  0  0
 11 12  1  0  0  0  0
  7 12  2  0  0  0  0
 12 13  1  0  0  0  0
 13 14  1  0  0  0  0
 14 15  2  0  0  0  0
 15 16  1  0  0  0  0
 16 17  2  0  0  0  0
 17 18  1  0  0  0  0
  6 18  1  0  0  0  0
 13 18  2  0  0  0  0
 10 19  1  0  0  0  0
 19 20  1  0  0  0  0
 20 21  2  0  0  0  0
 20 22  2  0  0  0  0
 20 23  1  0  0  0  0
 23 24  1  0  0  0  0
 24 25  2  0  0  0  0
 25 26  1  0  0  0  0
 26 27  1  0  0  0  0
 26 28  2  0  0  0  0
 28 29  1  0  0  0  0
 23 29  2  0  0  0  0
M  END
>  <Name>
CHEMBL298483

>  <Target_Uniprot>
P21731

>  <CHEMBL Canonical SMILES>
OC(=O)CCn1c2CCC(Cc2c3ccccc13)NS(=O)(=O)c4ccc(F)cc4

>  <PubMed ID>
21106375

$$$$

  Marvin  08031817322D          

 31 35  0  0  0  0            999 V2000
   -2.2108   -0.2563    0.0000 O   0  0  0  0  0  0  0  0  0  0  0  0
   -2.1369   -1.0780    0.0000 C   0  0  0  0  0  0  0  0  0  0  0  0
   -2.8115   -1.5529    0.0000 O   0  0  0  0  0  0  0  0  0  0  0  0
   -1.3883   -1.4248    0.0000 C   0  0  0  0  0  0  0  0  0  0  0  0
   -1.3144   -2.2465    0.0000 C   0  0  0  0  0  0  0  0  0  0  0  0
   -0.5658   -2.5933    0.0000 C   0  0  0  0  0  0  0  0  0  0  0  0
    0.1088   -2.1184    0.0000 C   0  0  0  0  0  0  0  0  0  0  0  0
    0.7973   -2.5729    0.0000 O   0  0  0  0  0  0  0  0  0  0  0  0
    1.5820   -2.3179    0.0000 C   0  0  0  0  0  0  0  0  0  0  0  0
    1.8719   -1.5456    0.0000 C   0  0  0  0  0  0  0  0  0  0  0  0
    2.6968   -1.5332    0.0000 C   0  0  0  0  0  0  0  0  0  0  0  0
    3.0985   -0.8126    0.0000 C   0  0  0  0  0  0  0  0  0  0  0  0
    2.6754   -0.1044    0.0000 C   0  0  0  0  0  0  0  0  0  0  0  0
    1.8505   -0.1168    0.0000 C   0  0  0  0  0  0  0  0  0  0  0  0
    1.4487   -0.8373    0.0000 C   0  0  0  0  0  0  0  0  0  0  0  0
    0.6312   -0.7266    0.0000 C   0  0  0  0  0  0  0  0  0  0  0  0
    0.3762    0.0580    0.0000 C   0  0  0  0  0  0  0  0  0  0  0  0
    0.9283    0.6711    0.0000 C   0  0  0  0  0  0  0  0  0  0  0  0
    0.6733    1.4557    0.0000 N   0  0  0  0  0  0  0  0  0  0  0  0
    1.1583    2.1232    0.0000 C   0  0  0  0  0  0  0  0  0  0  0  0
    0.6733    2.7906    0.0000 N   0  0  0  0  0  0  0  0  0  0  0  0
   -0.1113    2.5357    0.0000 C   0  0  0  0  0  0  0  0  0  0  0  0
   -0.8258    2.9482    0.0000 C   0  0  0  0  0  0  0  0  0  0  0  0
   -1.5402    2.5357    0.0000 C   0  0  0  0  0  0  0  0  0  0  0  0
   -2.2547    2.9482    0.0000 Cl  0  0  0  0  0  0  0  0  0  0  0  0
   -1.5402    1.7107    0.0000 C   0  0  0  0  0  0  0  0  0  0  0  0
   -2.2547    1.2982    0.0000 Cl  0  0  0  0  0  0  0  0  0  0  0  0
   -0.8258    1.2982    0.0000 C   0  0  0  0  0  0  0  0  0  0  0  0
   -0.1113    1.7107    0.0000 C   0  0  0  0  0  0  0  0  0  0  0  0
    0.0349   -1.2967    0.0000 C   0  0  0  0  0  0  0  0  0  0  0  0
   -0.7137   -0.9499    0.0000 C   0  0  0  0  0  0  0  0  0  0  0  0
  1  2  1  0  0  0  0
  2  3  2  0  0  0  0
  2  4  1  0  0  0  0
  4  5  1  0  0  0  0
  5  6  2  0  0  0  0
  6  7  1  0  0  0  0
  7  8  1  0  0  0  0
  8  9  1  0  0  0  0
  9 10  1  0  0  0  0
 10 11  1  0  0  0  0
 11 12  2  0  0  0  0
 12 13  1  0  0  0  0
 13 14  2  0  0  0  0
 14 15  1  0  0  0  0
 10 15  2  0  0  0  0
 15 16  1  0  0  0  0
 16 17  2  0  0  0  0
 17 18  1  0  0  0  0
 18 19  1  0  0  0  0
 19 20  1  0  0  0  0
 20 21  2  0  0  0  0
 21 22  1  0  0  0  0
 22 23  1  0  0  0  0
 23 24  2  0  0  0  0
 24 25  1  0  0  0  0
 24 26  1  0  0  0  0
 26 27  1  0  0  0  0
 26 28  2  0  0  0  0
 28 29  1  0  0  0  0
 19 29  1  0  0  0  0
 22 29  2  0  0  0  0
 16 30  1  0  0  0  0
  7 30  2  0  0  0  0
 30 31  1  0  0  0  0
  4 31  2  0  0  0  0
M  END
>  <Name>
CHEMBL114614

>  <Target_Uniprot>
P21731

>  <CHEMBL Canonical SMILES>
OC(=O)c1ccc2OCc3ccccc3\C(=C/Cn4cnc5cc(Cl)c(Cl)cc45)\c2c1

>  <PubMed ID>
1388208

$$$$

  Marvin  08031817322D          

 36 38  0  0  0  0            999 V2000
   -1.0122   -3.4031    0.0000 C   0  0  0  0  0  0  0  0  0  0  0  0
   -1.0122   -2.5781    0.0000 C   0  0  0  0  0  0  0  0  0  0  0  0
   -1.7266   -2.1656    0.0000 C   0  0  0  0  0  0  0  0  0  0  0  0
   -0.2977   -2.1656    0.0000 N   0  0  0  0  0  0  0  0  0  0  0  0
   -0.2977   -1.3406    0.0000 C   0  0  0  0  0  0  0  0  0  0  0  0
   -1.0122   -0.9281    0.0000 C   0  0  0  0  0  0  0  0  0  0  0  0
   -1.0122   -0.1031    0.0000 C   0  0  0  0  0  0  0  0  0  0  0  0
   -0.2977    0.3094    0.0000 C   0  0  0  0  0  0  0  0  0  0  0  0
   -0.2977    1.1344    0.0000 C   0  0  0  0  0  0  0  0  0  0  0  0
   -1.0122    1.5469    0.0000 C   0  0  0  0  0  0  0  0  0  0  0  0
   -1.7266    1.1344    0.0000 C   0  0  0  0  0  0  0  0  0  0  0  0
   -1.7266    0.3094    0.0000 C   0  0  0  0  0  0  0  0  0  0  0  0
   -1.0122    2.3719    0.0000 C   0  0  0  0  0  0  0  0  0  0  0  0
   -0.2977    2.7844    0.0000 C   0  0  0  0  0  0  0  0  0  0  0  0
    0.4168    2.3719    0.0000 C   0  0  0  0  0  0  0  0  0  0  0  0
    1.1312    2.7844    0.0000 C   0  0  0  0  0  0  0  0  0  0  0  0
    1.8457    2.3719    0.0000 C   0  0  0  0  0  0  0  0  0  0  0  0
    2.5602    2.7844    0.0000 C   0  0  0  0  0  0  0  0  0  0  0  0
    2.5602    3.6094    0.0000 O   0  0  0  0  0  0  0  0  0  0  0  0
    3.2747    2.3719    0.0000 O   0  0  0  0  0  0  0  0  0  0  0  0
   -1.7266    2.7844    0.0000 C   0  0  0  0  0  0  0  0  0  0  0  0
   -1.7266    3.6094    0.0000 C   0  0  0  0  0  0  0  0  0  0  0  0
   -2.4411    4.0219    0.0000 C   0  0  0  0  0  0  0  0  0  0  0  0
   -3.1556    3.6094    0.0000 C   0  0  0  0  0  0  0  0  0  0  0  0
   -3.1556    2.7844    0.0000 N   0  0  0  0  0  0  0  0  0  0  0  0
   -2.4411    2.3719    0.0000 C   0  0  0  0  0  0  0  0  0  0  0  0
    0.4168   -2.5781    0.0000 S   0  0  0  0  0  0  0  0  0  0  0  0
    0.8293   -1.8637    0.0000 O   0  0  0  0  0  0  0  0  0  0  0  0
    0.0043   -3.2926    0.0000 O   0  0  0  0  0  0  0  0  0  0  0  0
    1.1312   -2.9906    0.0000 C   0  0  0  0  0  0  0  0  0  0  0  0
    1.1312   -3.8156    0.0000 C   0  0  0  0  0  0  0  0  0  0  0  0
    1.8457   -4.2281    0.0000 C   0  0  0  0  0  0  0  0  0  0  0  0
    2.5602   -3.8156    0.0000 C   0  0  0  0  0  0  0  0  0  0  0  0
    3.2747   -4.2281    0.0000 Cl  0  0  0  0  0  0  0  0  0  0  0  0
    2.5602   -2.9906    0.0000 C   0  0  0  0  0  0  0  0  0  0  0  0
    1.8457   -2.5781    0.0000 C   0  0  0  0  0  0  0  0  0  0  0  0
  1  2  1  0  0  0  0
  2  3  1  0  0  0  0
  2  4  1  0  0  0  0
  4  5  1  0  0  0  0
  5  6  1  0  0  0  0
  6  7  1  0  0  0  0
  7  8  1  0  0  0  0
  8  9  2  0  0  0  0
  9 10  1  0  0  0  0
 10 11  2  0  0  0  0
 11 12  1  0  0  0  0
  7 12  2  0  0  0  0
 10 13  1  0  0  0  0
 13 14  2  0  0  0  0
 14 15  1  0  0  0  0
 15 16  1  0  0  0  0
 16 17  1  0  0  0  0
 17 18  1  0  0  0  0
 18 19  2  0  0  0  0
 18 20  1  0  0  0  0
 13 21  1  0  0  0  0
 21 22  1  0  0  0  0
 22 23  2  0  0  0  0
 23 24  1  0  0  0  0
 24 25  2  0  0  0  0
 25 26  1  0  0  0  0
 21 26  2  0  0  0  0
  4 27  1  0  0  0  0
 27 28  2  0  0  0  0
 27 29  2  0  0  0  0
 27 30  1  0  0  0  0
 30 31  1  0  0  0  0
 31 32  2  0  0  0  0
 32 33  1  0  0  0  0
 33 34  1  0  0  0  0
 33 35  2  0  0  0  0
 35 36  1  0  0  0  0
 30 36  2  0  0  0  0
M  END
>  <Name>
CHEMBL419790

>  <Target_Uniprot>
P21731

>  <CHEMBL Canonical SMILES>
CC(C)N(CCc1ccc(cc1)\C(=C/CCCC(=O)O)\c2cccnc2)S(=O)(=O)c3ccc(Cl)cc3

>  <PubMed ID>
8289199

$$$$

  Marvin  08031817322D          

 34 37  0  0  0  0            999 V2000
    0.9342   -2.6844    0.0000 C   0  0  0  0  0  0  0  0  0  0  0  0
    0.3211   -2.1323    0.0000 C   0  0  0  0  0  0  0  0  0  0  0  0
    0.8732   -1.5192    0.0000 S   0  3  0  0  0  0  0  0  0  0  0  0
    1.6802   -1.6908    0.0000 O   0  5  0  0  0  0  0  0  0  0  0  0
    0.6182   -0.7346    0.0000 C   0  0  0  0  0  0  0  0  0  0  0  0
    1.1703   -0.1215    0.0000 C   0  0  0  0  0  0  0  0  0  0  0  0
    0.9153    0.6631    0.0000 C   0  0  0  0  0  0  0  0  0  0  0  0
    1.4003    1.3306    0.0000 C   0  0  0  0  0  0  0  0  0  0  0  0
    2.2253    1.3306    0.0000 C   0  0  0  0  0  0  0  0  0  0  0  0
    2.6378    2.0450    0.0000 O   0  0  0  0  0  0  0  0  0  0  0  0
    0.9153    1.9980    0.0000 O   0  0  0  0  0  0  0  0  0  0  0  0
    0.1307    1.7431    0.0000 C   0  0  0  0  0  0  0  0  0  0  0  0
   -0.5838    2.1556    0.0000 C   0  0  0  0  0  0  0  0  0  0  0  0
   -0.5838    2.9806    0.0000 O   0  0  0  0  0  0  0  0  0  0  0  0
    0.1307    3.3931    0.0000 C   0  0  0  0  0  0  0  0  0  0  0  0
    0.1307    4.2181    0.0000 C   0  0  0  0  0  0  0  0  0  0  0  0
   -0.5838    4.6306    0.0000 O   0  0  0  0  0  0  0  0  0  0  0  0
    0.8452    4.6306    0.0000 O   0  0  0  0  0  0  0  0  0  0  0  0
   -1.2982    1.7431    0.0000 C   0  0  0  0  0  0  0  0  0  0  0  0
   -1.2982    0.9181    0.0000 C   0  0  0  0  0  0  0  0  0  0  0  0
   -0.5838    0.5056    0.0000 C   0  0  0  0  0  0  0  0  0  0  0  0
    0.1307    0.9181    0.0000 C   0  0  0  0  0  0  0  0  0  0  0  0
   -0.2919   -1.5803    0.0000 C   0  0  0  0  0  0  0  0  0  0  0  0
   -0.1204   -0.7733    0.0000 C   0  0  0  0  0  0  0  0  0  0  0  0
   -0.7335   -0.2213    0.0000 C   0  0  0  0  0  0  0  0  0  0  0  0
   -1.5181   -0.4762    0.0000 C   0  0  0  0  0  0  0  0  0  0  0  0
   -1.6897   -1.2832    0.0000 C   0  0  0  0  0  0  0  0  0  0  0  0
   -1.0766   -1.8352    0.0000 C   0  0  0  0  0  0  0  0  0  0  0  0
   -0.2309   -2.7454    0.0000 C   0  0  0  0  0  0  0  0  0  0  0  0
   -1.0379   -2.5739    0.0000 C   0  0  0  0  0  0  0  0  0  0  0  0
   -1.5899   -3.1870    0.0000 C   0  0  0  0  0  0  0  0  0  0  0  0
   -1.3349   -3.9716    0.0000 C   0  0  0  0  0  0  0  0  0  0  0  0
   -0.5280   -4.1431    0.0000 C   0  0  0  0  0  0  0  0  0  0  0  0
    0.0241   -3.5300    0.0000 C   0  0  0  0  0  0  0  0  0  0  0  0
  1  2  1  0  0  0  0
  2  3  1  0  0  0  0
  3  4  1  0  0  0  0
  3  5  1  0  0  0  0
  5  6  1  0  0  0  0
  6  7  1  0  0  0  0
  7  8  2  0  0  0  0
  8  9  1  0  0  0  0
  9 10  1  0  0  0  0
  8 11  1  0  0  0  0
 11 12  1  0  0  0  0
 12 13  1  0  0  0  0
 13 14  1  0  0  0  0
 14 15  1  0  0  0  0
 15 16  1  0  0  0  0
 16 17  2  0  0  0  0
 16 18  1  0  0  0  0
 13 19  2  0  0  0  0
 19 20  1  0  0  0  0
 20 21  2  0  0  0  0
 21 22  1  0  0  0  0
  7 22  1  0  0  0  0
 12 22  2  0  0  0  0
  2 23  1  0  0  0  0
 23 24  1  0  0  0  0
 24 25  2  0  0  0  0
 25 26  1  0  0  0  0
 26 27  2  0  0  0  0
 27 28  1  0  0  0  0
 23 28  2  0  0  0  0
  2 29  1  0  0  0  0
 29 30  1  0  0  0  0
 30 31  2  0  0  0  0
 31 32  1  0  0  0  0
 32 33  2  0  0  0  0
 33 34  1  0  0  0  0
 29 34  2  0  0  0  0
M  CHG  2   3   1   4  -1
M  END
>  <Name>
CHEMBL365501

>  <Target_Uniprot>
P21731

>  <CHEMBL Canonical SMILES>
CC([S+]([O-])CCc1c(CO)oc2c(OCC(=O)O)cccc12)(c3ccccc3)c4ccccc4

>  <PubMed ID>
16078846

$$$$

  Marvin  08031817322D          

 39 42  0  0  1  0            999 V2000
   -1.9115   -6.1659    0.0000 O   0  0  0  0  0  0  0  0  0  0  0  0
   -1.1045   -5.9944    0.0000 C   0  0  0  0  0  0  0  0  0  0  0  0
   -0.5525   -6.6075    0.0000 O   0  0  0  0  0  0  0  0  0  0  0  0
   -0.8496   -5.2098    0.0000 C   0  0  0  0  0  0  0  0  0  0  0  0
   -1.4016   -4.5967    0.0000 C   0  0  0  0  0  0  0  0  0  0  0  0
   -1.1467   -3.8121    0.0000 C   0  0  0  0  0  0  0  0  0  0  0  0
   -1.6987   -3.1990    0.0000 C   0  0  0  0  0  0  0  0  0  0  0  0
   -1.4438   -2.4143    0.0000 C   0  0  0  0  0  0  0  0  0  0  0  0
   -1.9958   -1.8013    0.0000 C   0  0  0  0  0  0  0  0  0  0  0  0
   -1.7409   -1.0166    0.0000 C   0  0  0  0  0  0  0  0  0  0  0  0
   -0.9339   -0.8451    0.0000 C   0  0  0  0  0  0  0  0  0  0  0  0
   -0.6789   -0.0605    0.0000 C   0  0  0  0  0  0  0  0  0  0  0  0
   -1.2310    0.5526    0.0000 C   0  0  0  0  0  0  0  0  0  0  0  0
   -2.0380    0.3811    0.0000 C   0  0  0  0  0  0  0  0  0  0  0  0
   -2.2929   -0.4035    0.0000 C   0  0  0  0  0  0  0  0  0  0  0  0
   -0.9760    1.3372    0.0000 C   0  0  0  0  0  0  0  0  0  0  0  0
   -0.1914    1.5922    0.0000 N   0  0  0  0  0  0  0  0  0  0  0  0
   -0.1914    2.4172    0.0000 C   0  0  2  0  0  0  0  0  0  0  0  0
   -0.9760    2.6721    0.0000 C   0  0  0  0  0  0  0  0  0  0  0  0
   -1.4610    2.0047    0.0000 O   0  0  0  0  0  0  0  0  0  0  0  0
    0.4760    2.9021    0.0000 C   0  0  0  0  0  0  0  0  0  0  0  0
    0.3898    3.7226    0.0000 O   0  0  0  0  0  0  0  0  0  0  0  0
    1.2297    2.5665    0.0000 N   0  0  0  0  0  0  0  0  0  0  0  0
    1.8971    3.0515    0.0000 C   0  0  0  0  0  0  0  0  0  0  0  0
    2.6508    2.7159    0.0000 C   0  0  0  0  0  0  0  0  0  0  0  0
    3.3182    3.2008    0.0000 C   0  0  0  0  0  0  0  0  0  0  0  0
    4.0719    2.8653    0.0000 C   0  0  0  0  0  0  0  0  0  0  0  0
    4.7394    3.3502    0.0000 C   0  0  0  0  0  0  0  0  0  0  0  0
    5.4930    3.0146    0.0000 C   0  0  0  0  0  0  0  0  0  0  0  0
    6.1605    3.4996    0.0000 C   0  0  0  0  0  0  0  0  0  0  0  0
    6.0742    4.3200    0.0000 C   0  0  0  0  0  0  0  0  0  0  0  0
    5.3206    4.6556    0.0000 C   0  0  0  0  0  0  0  0  0  0  0  0
    4.6531    4.1707    0.0000 C   0  0  0  0  0  0  0  0  0  0  0  0
   -2.8028   -1.9728    0.0000 C   0  0  0  0  0  0  0  0  0  0  0  0
   -3.3548   -1.3597    0.0000 C   0  0  0  0  0  0  0  0  0  0  0  0
   -4.1618   -1.5312    0.0000 C   0  0  0  0  0  0  0  0  0  0  0  0
   -4.4167   -2.3158    0.0000 C   0  0  0  0  0  0  0  0  0  0  0  0
   -3.8647   -2.9289    0.0000 N   0  0  0  0  0  0  0  0  0  0  0  0
   -3.0577   -2.7574    0.0000 C   0  0  0  0  0  0  0  0  0  0  0  0
  1  2  1  0  0  0  0
  2  3  2  0  0  0  0
  2  4  1  0  0  0  0
  4  5  1  0  0  0  0
  5  6  1  0  0  0  0
  6  7  1  0  0  0  0
  7  8  1  0  0  0  0
  8  9  2  0  0  0  0
  9 10  1  0  0  0  0
 10 11  1  0  0  0  0
 11 12  2  0  0  0  0
 12 13  1  0  0  0  0
 13 14  2  0  0  0  0
 14 15  1  0  0  0  0
 10 15  2  0  0  0  0
 13 16  1  0  0  0  0
 16 17  2  0  0  0  0
 17 18  1  0  0  0  0
 18 19  1  0  0  0  0
 19 20  1  0  0  0  0
 16 20  1  0  0  0  0
 18 21  1  6  0  0  0
 21 22  2  0  0  0  0
 21 23  1  0  0  0  0
 23 24  1  0  0  0  0
 24 25  1  0  0  0  0
 25 26  1  0  0  0  0
 26 27  1  0  0  0  0
 27 28  1  0  0  0  0
 28 29  1  0  0  0  0
 29 30  1  0  0  0  0
 30 31  1  0  0  0  0
 31 32  1  0  0  0  0
 32 33  1  0  0  0  0
 28 33  1  0  0  0  0
  9 34  1  0  0  0  0
 34 35  1  0  0  0  0
 35 36  2  0  0  0  0
 36 37  1  0  0  0  0
 37 38  2  0  0  0  0
 38 39  1  0  0  0  0
 34 39  2  0  0  0  0
M  END
>  <Name>
CHEMBL59547

>  <Target_Uniprot>
P21731

>  <CHEMBL Canonical SMILES>
OC(=O)CCCC\C=C(\c1ccc(cc1)C2=N[C@H](CO2)C(=O)NCCCCC3CCCCC3)/c4cccnc4

>  <PubMed ID>
9873463

$$$$

  Marvin  08031817322D          

 33 35  0  0  0  0            999 V2000
   -3.2531   -4.2032    0.0000 O   0  0  0  0  0  0  0  0  0  0  0  0
   -2.5386   -4.6157    0.0000 C   0  0  0  0  0  0  0  0  0  0  0  0
   -2.5386   -5.4407    0.0000 O   0  0  0  0  0  0  0  0  0  0  0  0
   -1.8241   -4.2032    0.0000 C   0  0  0  0  0  0  0  0  0  0  0  0
   -1.8241   -3.3782    0.0000 C   0  0  0  0  0  0  0  0  0  0  0  0
   -1.1097   -2.9657    0.0000 C   0  0  0  0  0  0  0  0  0  0  0  0
   -1.1097   -2.1407    0.0000 C   0  0  0  0  0  0  0  0  0  0  0  0
   -0.3952   -1.7282    0.0000 O   0  0  0  0  0  0  0  0  0  0  0  0
   -0.3952   -0.9032    0.0000 N   0  0  0  0  0  0  0  0  0  0  0  0
    0.3193   -0.4907    0.0000 C   0  0  0  0  0  0  0  0  0  0  0  0
    0.3193    0.3343    0.0000 C   0  0  0  0  0  0  0  0  0  0  0  0
   -0.3952    0.7468    0.0000 C   0  0  0  0  0  0  0  0  0  0  0  0
   -0.3952    1.5718    0.0000 C   0  0  0  0  0  0  0  0  0  0  0  0
    0.3193    1.9843    0.0000 C   0  0  0  0  0  0  0  0  0  0  0  0
    0.3193    2.8093    0.0000 C   0  0  0  0  0  0  0  0  0  0  0  0
   -0.3952    3.2218    0.0000 C   0  0  0  0  0  0  0  0  0  0  0  0
   -1.1097    2.8093    0.0000 C   0  0  0  0  0  0  0  0  0  0  0  0
   -1.1097    1.9843    0.0000 C   0  0  0  0  0  0  0  0  0  0  0  0
   -0.3952    4.0468    0.0000 C   0  0  0  0  0  0  0  0  0  0  0  0
   -1.2202    4.0468    0.0000 F   0  0  0  0  0  0  0  0  0  0  0  0
    0.4298    4.0468    0.0000 F   0  0  0  0  0  0  0  0  0  0  0  0
   -0.3952    4.8718    0.0000 F   0  0  0  0  0  0  0  0  0  0  0  0
    1.0337    0.7468    0.0000 N   0  0  0  0  0  0  0  0  0  0  0  0
    1.7874    0.4113    0.0000 C   0  0  0  0  0  0  0  0  0  0  0  0
    2.3395    1.0244    0.0000 C   0  0  0  0  0  0  0  0  0  0  0  0
    1.9270    1.7388    0.0000 N   0  0  0  0  0  0  0  0  0  0  0  0
    1.1200    1.5673    0.0000 C   0  0  0  0  0  0  0  0  0  0  0  0
    1.0337   -0.9032    0.0000 C   0  0  0  0  0  0  0  0  0  0  0  0
    1.0337   -1.7282    0.0000 C   0  0  0  0  0  0  0  0  0  0  0  0
    1.7482   -2.1407    0.0000 C   0  0  0  0  0  0  0  0  0  0  0  0
    2.4627   -1.7282    0.0000 C   0  0  0  0  0  0  0  0  0  0  0  0
    2.4627   -0.9032    0.0000 C   0  0  0  0  0  0  0  0  0  0  0  0
    1.7482   -0.4907    0.0000 C   0  0  0  0  0  0  0  0  0  0  0  0
  1  2  1  0  0  0  0
  2  3  2  0  0  0  0
  2  4  1  0  0  0  0
  4  5  1  0  0  0  0
  5  6  1  0  0  0  0
  6  7  1  0  0  0  0
  7  8  1  0  0  0  0
  8  9  1  0  0  0  0
  9 10  2  0  0  0  0
 10 11  1  0  0  0  0
 11 12  1  0  0  0  0
 12 13  1  0  0  0  0
 13 14  1  0  0  0  0
 14 15  2  0  0  0  0
 15 16  1  0  0  0  0
 16 17  2  0  0  0  0
 17 18  1  0  0  0  0
 13 18  2  0  0  0  0
 16 19  1  0  0  0  0
 19 20  1  0  0  0  0
 19 21  1  0  0  0  0
 19 22  1  0  0  0  0
 11 23  1  0  0  0  0
 23 24  1  0  0  0  0
 24 25  2  0  0  0  0
 25 26  1  0  0  0  0
 26 27  2  0  0  0  0
 23 27  1  0  0  0  0
 10 28  1  0  0  0  0
 28 29  1  0  0  0  0
 29 30  1  0  0  0  0
 30 31  1  0  0  0  0
 31 32  1  0  0  0  0
 32 33  1  0  0  0  0
 28 33  1  0  0  0  0
M  END
>  <Name>
CHEMBL275256

>  <Target_Uniprot>
P21731

>  <CHEMBL Canonical SMILES>
OC(=O)CCCCO\N=C(\C(Cc1ccc(cc1)C(F)(F)F)n2ccnc2)/C3CCCCC3

>  <PubMed ID>
7932586

$$$$

  Marvin  08031817322D          

 29 31  0  0  1  0            999 V2000
   -0.2242   -1.0852    0.0000 O   0  0  0  0  0  0  0  0  0  0  0  0
    0.5741   -0.9079    0.0000 C   0  0  1  0  0  0  0  0  0  0  0  0
    1.1484   -1.4765    0.0000 C   0  0  0  0  0  0  0  0  0  0  0  0
    0.9960   -2.2778    0.0000 O   0  0  0  0  0  0  0  0  0  0  0  0
    1.5160   -2.9332    0.0000 C   0  0  0  0  0  0  0  0  0  0  0  0
    1.2697   -3.7221    0.0000 C   0  0  0  0  0  0  0  0  0  0  0  0
    1.8316   -4.3371    0.0000 C   0  0  0  0  0  0  0  0  0  0  0  0
    2.6346   -4.1637    0.0000 C   0  0  0  0  0  0  0  0  0  0  0  0
    3.1927   -4.7821    0.0000 I   0  0  0  0  0  0  0  0  0  0  0  0
    2.8826   -3.3802    0.0000 C   0  0  0  0  0  0  0  0  0  0  0  0
    2.3232   -2.7629    0.0000 C   0  0  0  0  0  0  0  0  0  0  0  0
    0.8591   -0.1527    0.0000 C   0  0  0  0  0  0  0  0  0  0  0  0
    0.4162    0.5234    0.0000 C   0  0  0  0  0  0  0  0  0  0  0  0
    0.6220    1.3123    0.0000 C   0  0  1  0  0  0  0  0  0  0  0  0
    1.4510    1.6439    0.0000 C   0  0  1  0  0  0  0  0  0  0  0  0
    2.0662    2.3457    0.0000 C   0  0  0  0  0  0  0  0  0  0  0  0
    1.5363    3.0565    0.0000 C   0  0  0  0  0  0  0  0  0  0  0  0
    0.6893    2.6670    0.0000 C   0  0  2  0  0  0  0  0  0  0  0  0
    1.2979    2.3229    0.0000 O   0  0  0  0  0  0  0  0  0  0  0  0
    0.1327    1.9688    0.0000 C   0  0  2  0  0  0  0  0  0  0  0  0
   -0.6860    1.9678    0.0000 C   0  0  0  0  0  0  0  0  0  0  0  0
   -1.1027    2.6608    0.0000 C   0  0  0  0  0  0  0  0  0  0  0  0
   -1.9161    2.6754    0.0000 C   0  0  0  0  0  0  0  0  0  0  0  0
   -2.3712    1.9897    0.0000 C   0  0  0  0  0  0  0  0  0  0  0  0
   -3.1917    1.8934    0.0000 C   0  0  0  0  0  0  0  0  0  0  0  0
   -3.7078    1.2478    0.0000 C   0  0  0  0  0  0  0  0  0  0  0  0
   -4.5343    1.2344    0.0000 C   0  0  0  0  0  0  0  0  0  0  0  0
   -4.8495    1.9986    0.0000 O   0  0  0  0  0  0  0  0  0  0  0  0
   -4.8558    0.4730    0.0000 O   0  0  0  0  0  0  0  0  0  0  0  0
  2  1  1  6  0  0  0
  2  3  1  0  0  0  0
  3  4  1  0  0  0  0
  4  5  1  0  0  0  0
  5  6  1  0  0  0  0
  6  7  2  0  0  0  0
  7  8  1  0  0  0  0
  8  9  1  0  0  0  0
  8 10  2  0  0  0  0
 10 11  1  0  0  0  0
  5 11  2  0  0  0  0
  2 12  1  0  0  0  0
 12 13  2  0  0  0  0
 14 13  1  6  0  0  0
 14 15  1  0  0  0  0
 15 16  1  0  0  0  0
 16 17  1  0  0  0  0
 17 18  1  0  0  0  0
 18 19  1  1  0  0  0
 15 19  1  1  0  0  0
 18 20  1  0  0  0  0
 14 20  1  0  0  0  0
 20 21  1  1  0  0  0
 21 22  1  0  0  0  0
 22 23  2  0  0  0  0
 23 24  1  0  0  0  0
 24 25  1  0  0  0  0
 25 26  1  0  0  0  0
 26 27  1  0  0  0  0
 27 28  2  0  0  0  0
 27 29  1  0  0  0  0
M  END
>  <Name>
CHEMBL2113346

>  <Target_Uniprot>
P21731

>  <CHEMBL Canonical SMILES>
O[C@@H](COc1ccc(I)cc1)\C=C\[C@H]2[C@H]3CC[C@H](O3)[C@@H]2C\C=C/CCCC(=O)O

>  <PubMed ID>
1826745

$$$$

  Marvin  08031817322D          

 31 32  0  0  0  0            999 V2000
   -6.2732   -5.1117    0.0000 C   0  0  0  0  0  0  0  0  0  0  0  0
   -5.9978   -4.3341    0.0000 C   0  0  0  0  0  0  0  0  0  0  0  0
   -5.2274   -4.0390    0.0000 C   0  0  0  0  0  0  0  0  0  0  0  0
   -4.8931   -3.2847    0.0000 C   0  0  0  0  0  0  0  0  0  0  0  0
   -4.1018   -3.0513    0.0000 C   0  0  0  0  0  0  0  0  0  0  0  0
   -3.7863   -2.2890    0.0000 C   0  0  0  0  0  0  0  0  0  0  0  0
   -2.9972   -2.0484    0.0000 C   0  0  0  0  0  0  0  0  0  0  0  0
   -2.8302   -1.2404    0.0000 C   0  0  0  0  0  0  0  0  0  0  0  0
   -3.3957   -0.6396    0.0000 O   0  0  0  0  0  0  0  0  0  0  0  0
   -2.0117   -1.1375    0.0000 N   0  0  0  0  0  0  0  0  0  0  0  0
   -1.6508   -0.3960    0.0000 C   0  0  0  0  0  0  0  0  0  0  0  0
   -0.8377   -0.2771    0.0000 C   0  0  0  0  0  0  0  0  0  0  0  0
   -0.2886   -0.8869    0.0000 O   0  0  0  0  0  0  0  0  0  0  0  0
   -0.6546    0.5135    0.0000 N   0  0  0  0  0  0  0  0  0  0  0  0
    0.1195    0.7594    0.0000 C   0  0  0  0  0  0  0  0  0  0  0  0
    0.4608    1.5051    0.0000 C   0  0  0  0  0  0  0  0  0  0  0  0
    1.2180    1.8117    0.0000 C   0  0  0  0  0  0  0  0  0  0  0  0
    1.8574    1.3039    0.0000 C   0  0  0  0  0  0  0  0  0  0  0  0
    2.5979    1.6181    0.0000 C   0  0  0  0  0  0  0  0  0  0  0  0
    3.2826    1.1836    0.0000 C   0  0  0  0  0  0  0  0  0  0  0  0
    4.0555    1.4593    0.0000 C   0  0  0  0  0  0  0  0  0  0  0  0
    4.7673    1.0431    0.0000 C   0  0  0  0  0  0  0  0  0  0  0  0
    5.5606    1.2694    0.0000 C   0  0  0  0  0  0  0  0  0  0  0  0
    6.2334    0.7919    0.0000 C   0  0  0  0  0  0  0  0  0  0  0  0
    6.0357   -0.0091    0.0000 O   0  0  0  0  0  0  0  0  0  0  0  0
    6.9380    1.2210    0.0000 O   0  0  0  0  0  0  0  0  0  0  0  0
    1.1091    2.6964    0.0000 C   0  0  0  0  0  0  0  0  0  0  0  0
    0.5996    3.4737    0.0000 C   0  0  0  0  0  0  0  0  0  0  0  0
   -0.2246    3.1498    0.0000 C   0  0  0  0  0  0  0  0  0  0  0  0
   -0.0719    2.2255    0.0000 C   0  0  0  0  0  0  0  0  0  0  0  0
    0.4071    2.7195    0.0000 O   0  0  0  0  0  0  0  0  0  0  0  0
  1  2  1  0  0  0  0
  2  3  1  0  0  0  0
  3  4  1  0  0  0  0
  4  5  1  0  0  0  0
  5  6  1  0  0  0  0
  6  7  1  0  0  0  0
  7  8  1  0  0  0  0
  8  9  2  0  0  0  0
  8 10  1  0  0  0  0
 10 11  1  0  0  0  0
 11 12  1  0  0  0  0
 12 13  2  0  0  0  0
 12 14  1  0  0  0  0
 14 15  1  0  0  0  0
 15 16  1  0  0  0  0
 16 17  1  0  0  0  0
 17 18  1  0  0  0  0
 18 19  1  0  0  0  0
 19 20  2  0  0  0  0
 20 21  1  0  0  0  0
 21 22  1  0  0  0  0
 22 23  1  0  0  0  0
 23 24  1  0  0  0  0
 24 25  2  0  0  0  0
 24 26  1  0  0  0  0
 17 27  1  0  0  0  0
 27 28  1  0  0  0  0
 28 29  1  0  0  0  0
 29 30  1  0  0  0  0
 16 30  1  0  0  0  0
 30 31  1  0  0  0  0
 27 31  1  0  0  0  0
M  END
>  <Name>
CHEMBL81263

>  <Target_Uniprot>
P21731

>  <CHEMBL Canonical SMILES>
CCCCCCCC(=O)NCC(=O)NCC1C(C\C=C\CCCC(=O)O)C2CCC1O2

>  <PubMed ID>
2391688

$$$$

  Marvin  08031817322D          

 37 39  0  0  0  0            999 V2000
   -1.6414   -1.3267    0.0000 N   0  0  0  0  0  0  0  0  0  0  0  0
   -1.6414   -2.1517    0.0000 C   0  0  0  0  0  0  0  0  0  0  0  0
   -2.3558   -2.5642    0.0000 O   0  0  0  0  0  0  0  0  0  0  0  0
   -0.9269   -2.5642    0.0000 C   0  0  0  0  0  0  0  0  0  0  0  0
   -0.2124   -2.1517    0.0000 N   0  0  0  0  0  0  0  0  0  0  0  0
   -0.2124   -1.3267    0.0000 C   0  0  0  0  0  0  0  0  0  0  0  0
   -0.9269   -0.9142    0.0000 C   0  0  0  0  0  0  0  0  0  0  0  0
   -0.9269   -0.0892    0.0000 C   0  0  0  0  0  0  0  0  0  0  0  0
   -0.2124    0.3233    0.0000 C   0  0  0  0  0  0  0  0  0  0  0  0
   -0.2124    1.1483    0.0000 C   0  0  0  0  0  0  0  0  0  0  0  0
   -0.9269    1.5608    0.0000 C   0  0  0  0  0  0  0  0  0  0  0  0
   -1.6414    1.1483    0.0000 C   0  0  0  0  0  0  0  0  0  0  0  0
   -1.6414    0.3233    0.0000 C   0  0  0  0  0  0  0  0  0  0  0  0
   -0.9269    2.3858    0.0000 C   0  0  0  0  0  0  0  0  0  0  0  0
   -0.2124    2.7983    0.0000 C   0  0  0  0  0  0  0  0  0  0  0  0
    0.5021    2.3858    0.0000 C   0  0  0  0  0  0  0  0  0  0  0  0
    1.2165    2.7983    0.0000 C   0  0  0  0  0  0  0  0  0  0  0  0
    1.9310    2.3858    0.0000 C   0  0  0  0  0  0  0  0  0  0  0  0
    2.6455    2.7983    0.0000 C   0  0  0  0  0  0  0  0  0  0  0  0
    2.6455    3.6233    0.0000 O   0  0  0  0  0  0  0  0  0  0  0  0
    3.3599    2.3858    0.0000 O   0  0  0  0  0  0  0  0  0  0  0  0
   -1.6414    2.7983    0.0000 C   0  0  0  0  0  0  0  0  0  0  0  0
   -1.6414    3.6233    0.0000 C   0  0  0  0  0  0  0  0  0  0  0  0
   -2.3558    4.0358    0.0000 C   0  0  0  0  0  0  0  0  0  0  0  0
   -3.0703    3.6233    0.0000 C   0  0  0  0  0  0  0  0  0  0  0  0
   -3.0703    2.7983    0.0000 N   0  0  0  0  0  0  0  0  0  0  0  0
   -2.3558    2.3858    0.0000 C   0  0  0  0  0  0  0  0  0  0  0  0
    0.5021   -2.5642    0.0000 S   0  0  0  0  0  0  0  0  0  0  0  0
    0.9146   -1.8497    0.0000 O   0  0  0  0  0  0  0  0  0  0  0  0
    0.0896   -3.2787    0.0000 O   0  0  0  0  0  0  0  0  0  0  0  0
    1.2165   -2.9767    0.0000 C   0  0  0  0  0  0  0  0  0  0  0  0
    1.2165   -3.8017    0.0000 C   0  0  0  0  0  0  0  0  0  0  0  0
    1.9310   -4.2142    0.0000 C   0  0  0  0  0  0  0  0  0  0  0  0
    2.6455   -3.8017    0.0000 C   0  0  0  0  0  0  0  0  0  0  0  0
    3.3599   -4.2142    0.0000 Cl  0  0  0  0  0  0  0  0  0  0  0  0
    2.6455   -2.9767    0.0000 C   0  0  0  0  0  0  0  0  0  0  0  0
    1.9310   -2.5642    0.0000 C   0  0  0  0  0  0  0  0  0  0  0  0
  1  2  1  0  0  0  0
  2  3  2  0  0  0  0
  2  4  1  0  0  0  0
  4  5  1  0  0  0  0
  5  6  1  0  0  0  0
  6  7  1  0  0  0  0
  7  8  1  0  0  0  0
  8  9  1  0  0  0  0
  9 10  2  0  0  0  0
 10 11  1  0  0  0  0
 11 12  2  0  0  0  0
 12 13  1  0  0  0  0
  8 13  2  0  0  0  0
 11 14  1  0  0  0  0
 14 15  2  0  0  0  0
 15 16  1  0  0  0  0
 16 17  1  0  0  0  0
 17 18  1  0  0  0  0
 18 19  1  0  0  0  0
 19 20  2  0  0  0  0
 19 21  1  0  0  0  0
 14 22  1  0  0  0  0
 22 23  1  0  0  0  0
 23 24  2  0  0  0  0
 24 25  1  0  0  0  0
 25 26  2  0  0  0  0
 26 27  1  0  0  0  0
 22 27  2  0  0  0  0
  5 28  1  0  0  0  0
 28 29  2  0  0  0  0
 28 30  2  0  0  0  0
 28 31  1  0  0  0  0
 31 32  1  0  0  0  0
 32 33  2  0  0  0  0
 33 34  1  0  0  0  0
 34 35  1  0  0  0  0
 34 36  2  0  0  0  0
 36 37  1  0  0  0  0
 31 37  2  0  0  0  0
M  END
>  <Name>
CHEMBL126196

>  <Target_Uniprot>
P21731

>  <CHEMBL Canonical SMILES>
NC(=O)CN(CCc1ccc(cc1)\C(=C/CCCC(=O)O)\c2cccnc2)S(=O)(=O)c3ccc(Cl)cc3

>  <PubMed ID>
8289199

$$$$

  Marvin  08031817322D          

 22 23  0  0  0  0            999 V2000
   -2.1678   -3.7259    0.0000 O   0  0  0  0  0  0  0  0  0  0  0  0
   -1.3448   -3.6629    0.0000 C   0  0  0  0  0  0  0  0  0  0  0  0
   -0.7206   -4.2029    0.0000 O   0  0  0  0  0  0  0  0  0  0  0  0
   -1.1020   -2.8741    0.0000 C   0  0  0  0  0  0  0  0  0  0  0  0
   -1.5573   -2.1858    0.0000 C   0  0  0  0  0  0  0  0  0  0  0  0
   -1.3922   -1.3774    0.0000 C   0  0  0  0  0  0  0  0  0  0  0  0
   -1.9095   -0.7392    0.0000 C   0  0  0  0  0  0  0  0  0  0  0  0
   -1.6580    0.0335    0.0000 C   0  0  0  0  0  0  0  0  0  0  0  0
   -0.8657    0.2078    0.0000 C   0  0  0  0  0  0  0  0  0  0  0  0
   -0.5427    0.9639    0.0000 C   0  0  0  0  0  0  0  0  0  0  0  0
    0.2149    1.2714    0.0000 C   0  0  0  0  0  0  0  0  0  0  0  0
    0.8555    0.7651    0.0000 C   0  0  0  0  0  0  0  0  0  0  0  0
    1.6023    1.0643    0.0000 S   0  0  0  0  0  0  0  0  0  0  0  0
    2.2983    0.6497    0.0000 C   0  0  0  0  0  0  0  0  0  0  0  0
    3.0825    0.8901    0.0000 C   0  0  0  0  0  0  0  0  0  0  0  0
    3.8215    0.5238    0.0000 C   0  0  0  0  0  0  0  0  0  0  0  0
    4.5861    0.8344    0.0000 C   0  0  0  0  0  0  0  0  0  0  0  0
    0.1055    2.1566    0.0000 C   0  0  0  0  0  0  0  0  0  0  0  0
   -0.4053    2.9340    0.0000 C   0  0  0  0  0  0  0  0  0  0  0  0
   -1.2295    2.6092    0.0000 C   0  0  0  0  0  0  0  0  0  0  0  0
   -1.0755    1.6850    0.0000 C   0  0  0  0  0  0  0  0  0  0  0  0
   -0.5957    2.1796    0.0000 O   0  0  0  0  0  0  0  0  0  0  0  0
  1  2  1  0  0  0  0
  2  3  2  0  0  0  0
  2  4  1  0  0  0  0
  4  5  1  0  0  0  0
  5  6  1  0  0  0  0
  6  7  1  0  0  0  0
  7  8  2  0  0  0  0
  8  9  1  0  0  0  0
  9 10  1  0  0  0  0
 10 11  1  0  0  0  0
 11 12  1  0  0  0  0
 12 13  1  0  0  0  0
 13 14  1  0  0  0  0
 14 15  1  0  0  0  0
 15 16  1  0  0  0  0
 16 17  2  0  0  0  0
 11 18  1  0  0  0  0
 18 19  1  0  0  0  0
 19 20  1  0  0  0  0
 20 21  1  0  0  0  0
 10 21  1  0  0  0  0
 21 22  1  0  0  0  0
 18 22  1  0  0  0  0
M  END
>  <Name>
CHEMBL175751

>  <Target_Uniprot>
P21731

>  <CHEMBL Canonical SMILES>
OC(=O)CCC\C=C/CC1C(CSCCC=C)C2CCC1O2

>  <PubMed ID>
2523485

$$$$

  Marvin  08031817322D          

 23 25  0  0  0  0            999 V2000
    2.6094   -2.8337    0.0000 C   0  0  0  0  0  0  0  0  0  0  0  0
    2.6094   -2.0087    0.0000 O   0  0  0  0  0  0  0  0  0  0  0  0
    1.8949   -1.5962    0.0000 C   0  0  0  0  0  0  0  0  0  0  0  0
    1.8949   -0.7712    0.0000 C   0  0  0  0  0  0  0  0  0  0  0  0
    2.6094   -0.3587    0.0000 I   0  0  0  0  0  0  0  0  0  0  0  0
    1.1804   -0.3587    0.0000 C   0  0  0  0  0  0  0  0  0  0  0  0
    0.4660   -0.7712    0.0000 C   0  0  0  0  0  0  0  0  0  0  0  0
   -0.2485   -0.3587    0.0000 C   0  0  0  0  0  0  0  0  0  0  0  0
   -0.2485    0.4663    0.0000 C   0  0  0  0  0  0  0  0  0  0  0  0
    0.4660    0.8788    0.0000 N   0  0  0  0  0  0  0  0  0  0  0  0
    0.4660    1.7038    0.0000 C   0  0  0  0  0  0  0  0  0  0  0  0
   -0.2485    2.1163    0.0000 C   0  0  0  0  0  0  0  0  0  0  0  0
   -0.9630    1.7038    0.0000 C   0  0  0  0  0  0  0  0  0  0  0  0
   -1.6775    2.1163    0.0000 C   0  0  0  0  0  0  0  0  0  0  0  0
   -2.3919    1.7038    0.0000 C   0  0  0  0  0  0  0  0  0  0  0  0
   -3.1064    2.1163    0.0000 O   0  0  0  0  0  0  0  0  0  0  0  0
   -2.3919    0.8788    0.0000 C   0  0  0  0  0  0  0  0  0  0  0  0
   -3.1064    0.4663    0.0000 O   0  0  0  0  0  0  0  0  0  0  0  0
   -1.6775    0.4663    0.0000 C   0  0  0  0  0  0  0  0  0  0  0  0
   -0.9630    0.8788    0.0000 C   0  0  0  0  0  0  0  0  0  0  0  0
    0.4660   -1.5962    0.0000 C   0  0  0  0  0  0  0  0  0  0  0  0
    1.1804   -2.0087    0.0000 C   0  0  0  0  0  0  0  0  0  0  0  0
    1.1804   -2.8337    0.0000 I   0  0  0  0  0  0  0  0  0  0  0  0
  1  2  1  0  0  0  0
  2  3  1  0  0  0  0
  3  4  1  0  0  0  0
  4  5  1  0  0  0  0
  4  6  2  0  0  0  0
  6  7  1  0  0  0  0
  7  8  1  0  0  0  0
  8  9  1  0  0  0  0
  9 10  1  0  0  0  0
 10 11  1  0  0  0  0
 11 12  1  0  0  0  0
 12 13  1  0  0  0  0
 13 14  1  0  0  0  0
 14 15  2  0  0  0  0
 15 16  1  0  0  0  0
 15 17  1  0  0  0  0
 17 18  1  0  0  0  0
 17 19  2  0  0  0  0
 19 20  1  0  0  0  0
  9 20  1  0  0  0  0
 13 20  2  0  0  0  0
  7 21  2  0  0  0  0
 21 22  1  0  0  0  0
  3 22  2  0  0  0  0
 22 23  1  0  0  0  0
M  END
>  <Name>
CHEMBL308351

>  <Target_Uniprot>
P21731

>  <CHEMBL Canonical SMILES>
COc1c(I)cc(CC2NCCc3cc(O)c(O)cc23)cc1I

>  <PubMed ID>
8809159

$$$$

  Marvin  08031817322D          

 28 31  0  0  1  0            999 V2000
    1.3855   -1.4103    0.0000 C   0  0  0  0  0  0  0  0  0  0  0  0
    2.1000   -0.9978    0.0000 S   0  3  0  0  0  0  0  0  0  0  0  0
    2.8145   -1.4103    0.0000 O   0  5  0  0  0  0  0  0  0  0  0  0
    2.1000   -0.1728    0.0000 C   0  0  0  0  0  0  0  0  0  0  0  0
    2.8145    0.2397    0.0000 C   0  0  0  0  0  0  0  0  0  0  0  0
    2.8145    1.0647    0.0000 C   0  0  0  0  0  0  0  0  0  0  0  0
    2.1000    1.4772    0.0000 C   0  0  0  0  0  0  0  0  0  0  0  0
    1.3855    1.0647    0.0000 C   0  0  0  0  0  0  0  0  0  0  0  0
    0.6009    1.3196    0.0000 C   0  0  0  0  0  0  0  0  0  0  0  0
    0.2653    2.0733    0.0000 C   0  0  0  0  0  0  0  0  0  0  0  0
   -0.5551    2.1595    0.0000 C   0  0  0  0  0  0  0  0  0  0  0  0
   -1.0401    1.4921    0.0000 C   0  0  0  0  0  0  0  0  0  0  0  0
   -0.7045    0.7384    0.0000 C   0  0  2  0  0  0  0  0  0  0  0  0
   -1.1894    0.0710    0.0000 C   0  0  0  0  0  0  0  0  0  0  0  0
   -2.0099    0.1572    0.0000 C   0  0  0  0  0  0  0  0  0  0  0  0
   -2.3455    0.9109    0.0000 O   0  0  0  0  0  0  0  0  0  0  0  0
   -2.4948   -0.5102    0.0000 O   0  0  0  0  0  0  0  0  0  0  0  0
    0.1160    0.6522    0.0000 C   0  0  0  0  0  0  0  0  0  0  0  0
    0.6009   -0.0153    0.0000 N   0  0  0  0  0  0  0  0  0  0  0  0
    0.3460   -0.7999    0.0000 C   0  0  0  0  0  0  0  0  0  0  0  0
   -0.4610   -0.9714    0.0000 C   0  0  0  0  0  0  0  0  0  0  0  0
   -1.0130   -0.3583    0.0000 C   0  0  0  0  0  0  0  0  0  0  0  0
   -1.8200   -0.5298    0.0000 C   0  0  0  0  0  0  0  0  0  0  0  0
   -2.0749   -1.3145    0.0000 C   0  0  0  0  0  0  0  0  0  0  0  0
   -2.8819   -1.4860    0.0000 Cl  0  0  0  0  0  0  0  0  0  0  0  0
   -1.5229   -1.9276    0.0000 C   0  0  0  0  0  0  0  0  0  0  0  0
   -0.7159   -1.7560    0.0000 C   0  0  0  0  0  0  0  0  0  0  0  0
    1.3855    0.2397    0.0000 C   0  0  0  0  0  0  0  0  0  0  0  0
  1  2  1  0  0  0  0
  2  3  1  0  0  0  0
  2  4  1  0  0  0  0
  4  5  2  0  0  0  0
  5  6  1  0  0  0  0
  6  7  2  0  0  0  0
  7  8  1  0  0  0  0
  8  9  1  0  0  0  0
  9 10  1  0  0  0  0
 10 11  1  0  0  0  0
 11 12  1  0  0  0  0
 12 13  1  0  0  0  0
 13 14  1  1  0  0  0
 14 15  1  0  0  0  0
 15 16  2  0  0  0  0
 15 17  1  0  0  0  0
 13 18  1  0  0  0  0
  9 18  2  0  0  0  0
 18 19  1  0  0  0  0
 19 20  1  0  0  0  0
 20 21  1  0  0  0  0
 21 22  1  0  0  0  0
 22 23  2  0  0  0  0
 23 24  1  0  0  0  0
 24 25  1  0  0  0  0
 24 26  2  0  0  0  0
 26 27  1  0  0  0  0
 21 27  2  0  0  0  0
 19 28  1  0  0  0  0
  4 28  1  0  0  0  0
  8 28  2  0  0  0  0
M  CHG  2   2   1   3  -1
M  END
>  <Name>
CHEMBL210356

>  <Target_Uniprot>
P21731

>  <CHEMBL Canonical SMILES>
C[S+]([O-])c1cccc2c3CCC[C@H](CC(=O)O)c3n(Cc4ccc(Cl)cc4)c12

>  <PubMed ID>
16529930

$$$$

  Marvin  08031817322D          

 31 34  0  0  0  0            999 V2000
    2.7360    0.5056    0.0000 O   0  0  0  0  0  0  0  0  0  0  0  0
    2.7360    1.3306    0.0000 C   0  0  0  0  0  0  0  0  0  0  0  0
    3.4504    1.7431    0.0000 O   0  0  0  0  0  0  0  0  0  0  0  0
    2.0215    1.7431    0.0000 C   0  0  0  0  0  0  0  0  0  0  0  0
    2.0215    2.5681    0.0000 C   0  0  0  0  0  0  0  0  0  0  0  0
    1.3070    2.9806    0.0000 C   0  0  0  0  0  0  0  0  0  0  0  0
    0.5925    2.5681    0.0000 C   0  0  0  0  0  0  0  0  0  0  0  0
   -0.0525    3.0825    0.0000 O   0  0  0  0  0  0  0  0  0  0  0  0
   -0.8568    2.8989    0.0000 C   0  0  0  0  0  0  0  0  0  0  0  0
   -1.2147    2.1556    0.0000 C   0  0  0  0  0  0  0  0  0  0  0  0
   -2.0374    2.2172    0.0000 C   0  0  0  0  0  0  0  0  0  0  0  0
   -2.5022    1.5356    0.0000 C   0  0  0  0  0  0  0  0  0  0  0  0
   -2.1442    0.7923    0.0000 C   0  0  0  0  0  0  0  0  0  0  0  0
   -1.3215    0.7306    0.0000 C   0  0  0  0  0  0  0  0  0  0  0  0
   -0.8568    1.4123    0.0000 C   0  0  0  0  0  0  0  0  0  0  0  0
   -0.0525    1.2287    0.0000 C   0  0  0  0  0  0  0  0  0  0  0  0
    0.1311    0.4244    0.0000 S   0  0  0  0  0  0  0  0  0  0  0  0
   -0.4737   -0.1368    0.0000 C   0  0  0  0  0  0  0  0  0  0  0  0
   -0.2901   -0.9411    0.0000 C   0  0  0  0  0  0  0  0  0  0  0  0
   -0.8948   -1.5022    0.0000 N   0  0  0  0  0  0  0  0  0  0  0  0
   -0.7113   -2.3065    0.0000 S   0  0  0  0  0  0  0  0  0  0  0  0
    0.0931   -2.1230    0.0000 O   0  0  0  0  0  0  0  0  0  0  0  0
   -1.5156   -2.4901    0.0000 O   0  0  0  0  0  0  0  0  0  0  0  0
   -0.5277   -3.1109    0.0000 C   0  0  0  0  0  0  0  0  0  0  0  0
   -1.1325   -3.6720    0.0000 C   0  0  0  0  0  0  0  0  0  0  0  0
   -0.9489   -4.4763    0.0000 C   0  0  0  0  0  0  0  0  0  0  0  0
   -0.1605   -4.7195    0.0000 C   0  0  0  0  0  0  0  0  0  0  0  0
    0.4442   -4.1583    0.0000 N   0  0  0  0  0  0  0  0  0  0  0  0
    0.2607   -3.3540    0.0000 C   0  0  0  0  0  0  0  0  0  0  0  0
    0.5925    1.7431    0.0000 C   0  0  0  0  0  0  0  0  0  0  0  0
    1.3070    1.3306    0.0000 C   0  0  0  0  0  0  0  0  0  0  0  0
  1  2  1  0  0  0  0
  2  3  2  0  0  0  0
  2  4  1  0  0  0  0
  4  5  1  0  0  0  0
  5  6  2  0  0  0  0
  6  7  1  0  0  0  0
  7  8  1  0  0  0  0
  8  9  1  0  0  0  0
  9 10  1  0  0  0  0
 10 11  1  0  0  0  0
 11 12  2  0  0  0  0
 12 13  1  0  0  0  0
 13 14  2  0  0  0  0
 14 15  1  0  0  0  0
 10 15  2  0  0  0  0
 15 16  1  0  0  0  0
 16 17  1  0  0  0  0
 17 18  1  0  0  0  0
 18 19  1  0  0  0  0
 19 20  1  0  0  0  0
 20 21  1  0  0  0  0
 21 22  2  0  0  0  0
 21 23  2  0  0  0  0
 21 24  1  0  0  0  0
 24 25  1  0  0  0  0
 25 26  2  0  0  0  0
 26 27  1  0  0  0  0
 27 28  2  0  0  0  0
 28 29  1  0  0  0  0
 24 29  2  0  0  0  0
 16 30  1  0  0  0  0
  7 30  2  0  0  0  0
 30 31  1  0  0  0  0
  4 31  2  0  0  0  0
M  END
>  <Name>
CHEMBL296720

>  <Target_Uniprot>
P21731

>  <CHEMBL Canonical SMILES>
OC(=O)c1ccc2OCc3ccccc3C(SCCNS(=O)(=O)c4cccnc4)c2c1

>  <PubMed ID>
1388207

$$$$

  Marvin  08031817322D          

 28 31  0  0  0  0            999 V2000
    1.9561    0.2561    0.0000 C   0  0  0  0  0  0  0  0  0  0  0  0
    1.2025   -0.0795    0.0000 C   0  0  0  0  0  0  0  0  0  0  0  0
    2.0229   -0.1657    0.0000 C   0  0  0  0  0  0  0  0  0  0  0  0
    0.7175   -0.7469    0.0000 C   0  0  0  0  0  0  0  0  0  0  0  0
    1.0531   -1.5006    0.0000 C   0  0  0  0  0  0  0  0  0  0  0  0
    0.5682   -2.1680    0.0000 C   0  0  0  0  0  0  0  0  0  0  0  0
    0.9037   -2.9217    0.0000 F   0  0  0  0  0  0  0  0  0  0  0  0
   -0.2523   -2.0818    0.0000 C   0  0  0  0  0  0  0  0  0  0  0  0
   -0.5879   -1.3281    0.0000 C   0  0  0  0  0  0  0  0  0  0  0  0
   -0.1029   -0.6607    0.0000 C   0  0  0  0  0  0  0  0  0  0  0  0
   -0.5879    0.0068    0.0000 C   0  0  0  0  0  0  0  0  0  0  0  0
   -0.3329    0.7914    0.0000 S   0  0  0  0  0  0  0  0  0  0  0  0
    0.4740    0.9629    0.0000 C   0  0  0  0  0  0  0  0  0  0  0  0
    1.0261    0.3498    0.0000 C   0  0  0  0  0  0  0  0  0  0  0  0
    1.8331    0.5213    0.0000 C   0  0  0  0  0  0  0  0  0  0  0  0
    2.0880    1.3060    0.0000 C   0  0  0  0  0  0  0  0  0  0  0  0
    2.8950    1.4775    0.0000 Cl  0  0  0  0  0  0  0  0  0  0  0  0
    1.5360    1.9191    0.0000 C   0  0  0  0  0  0  0  0  0  0  0  0
    0.7290    1.7475    0.0000 C   0  0  0  0  0  0  0  0  0  0  0  0
   -1.3725   -0.2482    0.0000 C   0  0  0  0  0  0  0  0  0  0  0  0
   -2.1571    0.0068    0.0000 C   0  0  0  0  0  0  0  0  0  0  0  0
   -2.4120    0.7914    0.0000 C   0  0  0  0  0  0  0  0  0  0  0  0
   -1.8600    1.4045    0.0000 C   0  0  0  0  0  0  0  0  0  0  0  0
   -1.0530    1.2330    0.0000 O   0  0  0  0  0  0  0  0  0  0  0  0
   -2.1150    2.1891    0.0000 O   0  0  0  0  0  0  0  0  0  0  0  0
   -2.6420   -0.6607    0.0000 C   0  0  0  0  0  0  0  0  0  0  0  0
   -2.1571   -1.3281    0.0000 C   0  0  0  0  0  0  0  0  0  0  0  0
   -1.3725   -1.0732    0.0000 N   0  0  0  0  0  0  0  0  0  0  0  0
  1  2  1  0  0  0  0
  2  3  1  0  0  0  0
  2  4  1  0  0  0  0
  4  5  1  0  0  0  0
  5  6  2  0  0  0  0
  6  7  1  0  0  0  0
  6  8  1  0  0  0  0
  8  9  2  0  0  0  0
  9 10  1  0  0  0  0
  4 10  2  0  0  0  0
 10 11  1  0  0  0  0
 11 12  1  0  0  0  0
 12 13  1  0  0  0  0
 13 14  1  0  0  0  0
 14 15  2  0  0  0  0
 15 16  1  0  0  0  0
 16 17  1  0  0  0  0
 16 18  2  0  0  0  0
 18 19  1  0  0  0  0
 13 19  2  0  0  0  0
 11 20  2  0  0  0  0
 20 21  1  0  0  0  0
 21 22  1  0  0  0  0
 22 23  1  0  0  0  0
 23 24  2  0  0  0  0
 23 25  1  0  0  0  0
 21 26  1  0  0  0  0
 26 27  1  0  0  0  0
 27 28  1  0  0  0  0
  9 28  1  0  0  0  0
 20 28  1  0  0  0  0
M  END
>  <Name>
CHEMBL410338

>  <Target_Uniprot>
P21731

>  <CHEMBL Canonical SMILES>
CC(C)c1cc(F)cc2c1c(Sc3ccc(Cl)cc3)c4C(CC(=O)O)CCn24

>  <PubMed ID>
18359630

$$$$

  Marvin  08031817322D          

 30 34  0  0  0  0            999 V2000
    0.9485    0.5990    0.0000 C   0  0  0  0  0  0  0  0  0  0  0  0
    0.9485    1.4240    0.0000 C   0  0  0  0  0  0  0  0  0  0  0  0
    1.6630    1.8365    0.0000 C   0  0  0  0  0  0  0  0  0  0  0  0
    1.6630    2.6615    0.0000 C   0  0  0  0  0  0  0  0  0  0  0  0
    0.9485    3.0740    0.0000 C   0  0  0  0  0  0  0  0  0  0  0  0
    0.2341    2.6615    0.0000 C   0  0  0  0  0  0  0  0  0  0  0  0
   -0.5505    2.9164    0.0000 N   0  0  0  0  0  0  0  0  0  0  0  0
   -1.0355    2.2490    0.0000 C   0  0  0  0  0  0  0  0  0  0  0  0
   -0.5505    1.5815    0.0000 N   0  0  0  0  0  0  0  0  0  0  0  0
   -0.8055    0.7969    0.0000 C   0  0  0  0  0  0  0  0  0  0  0  0
   -0.2535    0.1838    0.0000 C   0  0  0  0  0  0  0  0  0  0  0  0
   -0.5084   -0.6008    0.0000 C   0  0  0  0  0  0  0  0  0  0  0  0
   -1.3259   -0.7116    0.0000 C   0  0  0  0  0  0  0  0  0  0  0  0
   -1.7277    0.0090    0.0000 C   0  0  0  0  0  0  0  0  0  0  0  0
   -2.5526    0.0213    0.0000 C   0  0  0  0  0  0  0  0  0  0  0  0
   -2.9757   -0.6869    0.0000 C   0  0  0  0  0  0  0  0  0  0  0  0
   -2.5740   -1.4074    0.0000 C   0  0  0  0  0  0  0  0  0  0  0  0
   -1.7491   -1.4198    0.0000 C   0  0  0  0  0  0  0  0  0  0  0  0
   -1.4592   -2.1922    0.0000 C   0  0  0  0  0  0  0  0  0  0  0  0
   -0.6746   -2.4471    0.0000 O   0  0  0  0  0  0  0  0  0  0  0  0
    0.0140   -1.9926    0.0000 C   0  0  0  0  0  0  0  0  0  0  0  0
    0.6886   -2.4675    0.0000 C   0  0  0  0  0  0  0  0  0  0  0  0
    1.4372   -2.1207    0.0000 C   0  0  0  0  0  0  0  0  0  0  0  0
    1.5111   -1.2990    0.0000 C   0  0  0  0  0  0  0  0  0  0  0  0
    0.8365   -0.8241    0.0000 C   0  0  0  0  0  0  0  0  0  0  0  0
    0.0879   -1.1709    0.0000 C   0  0  0  0  0  0  0  0  0  0  0  0
    2.2597   -0.9522    0.0000 C   0  0  0  0  0  0  0  0  0  0  0  0
    2.3336   -0.1306    0.0000 O   0  0  0  0  0  0  0  0  0  0  0  0
    2.9343   -1.4271    0.0000 O   0  0  0  0  0  0  0  0  0  0  0  0
    0.2341    1.8365    0.0000 C   0  0  0  0  0  0  0  0  0  0  0  0
  1  2  1  0  0  0  0
  2  3  2  0  0  0  0
  3  4  1  0  0  0  0
  4  5  2  0  0  0  0
  5  6  1  0  0  0  0
  6  7  1  0  0  0  0
  7  8  2  0  0  0  0
  8  9  1  0  0  0  0
  9 10  1  0  0  0  0
 10 11  1  0  0  0  0
 11 12  2  0  0  0  0
 12 13  1  0  0  0  0
 13 14  1  0  0  0  0
 14 15  2  0  0  0  0
 15 16  1  0  0  0  0
 16 17  2  0  0  0  0
 17 18  1  0  0  0  0
 13 18  2  0  0  0  0
 18 19  1  0  0  0  0
 19 20  1  0  0  0  0
 20 21  1  0  0  0  0
 21 22  1  0  0  0  0
 22 23  2  0  0  0  0
 23 24  1  0  0  0  0
 24 25  2  0  0  0  0
 25 26  1  0  0  0  0
 12 26  1  0  0  0  0
 21 26  2  0  0  0  0
 24 27  1  0  0  0  0
 27 28  2  0  0  0  0
 27 29  1  0  0  0  0
  9 30  1  0  0  0  0
  2 30  1  0  0  0  0
  6 30  2  0  0  0  0
M  END
>  <Name>
CHEMBL323926

>  <Target_Uniprot>
P21731

>  <CHEMBL Canonical SMILES>
Cc1cccc2ncn(C\C=C\3/c4ccccc4COc5ccc(cc35)C(=O)O)c12

>  <PubMed ID>
1388208

$$$$

  Marvin  08031817322D          

 30 34  0  0  0  0            999 V2000
   -2.3336   -0.2406    0.0000 O   0  0  0  0  0  0  0  0  0  0  0  0
   -2.2597   -1.0622    0.0000 C   0  0  0  0  0  0  0  0  0  0  0  0
   -2.9343   -1.5371    0.0000 O   0  0  0  0  0  0  0  0  0  0  0  0
   -1.5111   -1.4090    0.0000 C   0  0  0  0  0  0  0  0  0  0  0  0
   -1.4372   -2.2307    0.0000 C   0  0  0  0  0  0  0  0  0  0  0  0
   -0.6886   -2.5775    0.0000 C   0  0  0  0  0  0  0  0  0  0  0  0
   -0.0140   -2.1026    0.0000 C   0  0  0  0  0  0  0  0  0  0  0  0
    0.6746   -2.5571    0.0000 O   0  0  0  0  0  0  0  0  0  0  0  0
    1.4592   -2.3022    0.0000 C   0  0  0  0  0  0  0  0  0  0  0  0
    1.7491   -1.5298    0.0000 C   0  0  0  0  0  0  0  0  0  0  0  0
    2.5740   -1.5174    0.0000 C   0  0  0  0  0  0  0  0  0  0  0  0
    2.9757   -0.7969    0.0000 C   0  0  0  0  0  0  0  0  0  0  0  0
    2.5526   -0.0887    0.0000 C   0  0  0  0  0  0  0  0  0  0  0  0
    1.7277   -0.1010    0.0000 C   0  0  0  0  0  0  0  0  0  0  0  0
    1.3259   -0.8216    0.0000 C   0  0  0  0  0  0  0  0  0  0  0  0
    0.5084   -0.7108    0.0000 C   0  0  0  0  0  0  0  0  0  0  0  0
    0.2535    0.0738    0.0000 C   0  0  0  0  0  0  0  0  0  0  0  0
    0.8055    0.6869    0.0000 C   0  0  0  0  0  0  0  0  0  0  0  0
    0.5505    1.4715    0.0000 N   0  0  0  0  0  0  0  0  0  0  0  0
    1.0355    2.1390    0.0000 C   0  0  0  0  0  0  0  0  0  0  0  0
    0.5505    2.8064    0.0000 N   0  0  0  0  0  0  0  0  0  0  0  0
   -0.2341    2.5515    0.0000 C   0  0  0  0  0  0  0  0  0  0  0  0
   -0.9485    2.9640    0.0000 C   0  0  0  0  0  0  0  0  0  0  0  0
   -0.9485    3.7890    0.0000 O   0  0  0  0  0  0  0  0  0  0  0  0
   -1.6630    2.5515    0.0000 C   0  0  0  0  0  0  0  0  0  0  0  0
   -1.6630    1.7265    0.0000 C   0  0  0  0  0  0  0  0  0  0  0  0
   -0.9485    1.3140    0.0000 C   0  0  0  0  0  0  0  0  0  0  0  0
   -0.2341    1.7265    0.0000 C   0  0  0  0  0  0  0  0  0  0  0  0
   -0.0879   -1.2809    0.0000 C   0  0  0  0  0  0  0  0  0  0  0  0
   -0.8365   -0.9341    0.0000 C   0  0  0  0  0  0  0  0  0  0  0  0
  1  2  1  0  0  0  0
  2  3  2  0  0  0  0
  2  4  1  0  0  0  0
  4  5  1  0  0  0  0
  5  6  2  0  0  0  0
  6  7  1  0  0  0  0
  7  8  1  0  0  0  0
  8  9  1  0  0  0  0
  9 10  1  0  0  0  0
 10 11  1  0  0  0  0
 11 12  2  0  0  0  0
 12 13  1  0  0  0  0
 13 14  2  0  0  0  0
 14 15  1  0  0  0  0
 10 15  2  0  0  0  0
 15 16  1  0  0  0  0
 16 17  2  0  0  0  0
 17 18  1  0  0  0  0
 18 19  1  0  0  0  0
 19 20  1  0  0  0  0
 20 21  2  0  0  0  0
 21 22  1  0  0  0  0
 22 23  1  0  0  0  0
 23 24  1  0  0  0  0
 23 25  2  0  0  0  0
 25 26  1  0  0  0  0
 26 27  2  0  0  0  0
 27 28  1  0  0  0  0
 19 28  1  0  0  0  0
 22 28  2  0  0  0  0
 16 29  1  0  0  0  0
  7 29  2  0  0  0  0
 29 30  1  0  0  0  0
  4 30  2  0  0  0  0
M  END
>  <Name>
CHEMBL423511

>  <Target_Uniprot>
P21731

>  <CHEMBL Canonical SMILES>
OC(=O)c1ccc2OCc3ccccc3\C(=C/Cn4cnc5c(O)cccc45)\c2c1

>  <PubMed ID>
1388208

$$$$

  Marvin  08031817322D          

 28 31  0  0  0  0            999 V2000
   -0.8534   -3.7414    0.0000 C   0  0  0  0  0  0  0  0  0  0  0  0
   -0.2540   -3.1806    0.0000 N   0  0  0  0  0  0  0  0  0  0  0  0
   -0.2478   -2.3629    0.0000 C   0  0  0  0  0  0  0  0  0  0  0  0
   -1.0048   -2.0538    0.0000 O   0  0  0  0  0  0  0  0  0  0  0  0
    0.4437   -1.9123    0.0000 C   0  0  0  0  0  0  0  0  0  0  0  0
    1.2243   -2.1625    0.0000 C   0  0  0  0  0  0  0  0  0  0  0  0
    1.7135   -1.4920    0.0000 O   0  0  0  0  0  0  0  0  0  0  0  0
    1.2315   -0.8373    0.0000 C   0  0  0  0  0  0  0  0  0  0  0  0
    0.4468   -1.0899    0.0000 N   0  0  0  0  0  0  0  0  0  0  0  0
    1.4683   -0.0590    0.0000 C   0  0  0  0  0  0  0  0  0  0  0  0
    2.2807    0.2533    0.0000 C   0  0  0  0  0  0  0  0  0  0  0  0
    2.8644    0.9470    0.0000 C   0  0  0  0  0  0  0  0  0  0  0  0
    2.3105    1.6512    0.0000 C   0  0  0  0  0  0  0  0  0  0  0  0
    1.4877    1.2837    0.0000 C   0  0  0  0  0  0  0  0  0  0  0  0
    2.1251    0.9425    0.0000 O   0  0  0  0  0  0  0  0  0  0  0  0
    0.9661    0.5956    0.0000 C   0  0  0  0  0  0  0  0  0  0  0  0
    0.1516    0.6968    0.0000 C   0  0  0  0  0  0  0  0  0  0  0  0
   -0.2570    1.3655    0.0000 C   0  0  0  0  0  0  0  0  0  0  0  0
    0.1676    2.0797    0.0000 C   0  0  0  0  0  0  0  0  0  0  0  0
   -0.2454    2.7993    0.0000 C   0  0  0  0  0  0  0  0  0  0  0  0
   -1.0516    2.7986    0.0000 C   0  0  0  0  0  0  0  0  0  0  0  0
   -1.4648    2.0701    0.0000 C   0  0  0  0  0  0  0  0  0  0  0  0
   -1.0536    1.3515    0.0000 C   0  0  0  0  0  0  0  0  0  0  0  0
   -1.5161    0.6669    0.0000 C   0  0  0  0  0  0  0  0  0  0  0  0
   -2.3104    0.5058    0.0000 C   0  0  0  0  0  0  0  0  0  0  0  0
   -2.7609   -0.1746    0.0000 C   0  0  0  0  0  0  0  0  0  0  0  0
   -2.2839   -0.8416    0.0000 O   0  0  0  0  0  0  0  0  0  0  0  0
   -3.5784   -0.0999    0.0000 O   0  0  0  0  0  0  0  0  0  0  0  0
  1  2  1  0  0  0  0
  2  3  1  0  0  0  0
  3  4  2  0  0  0  0
  3  5  1  0  0  0  0
  5  6  2  0  0  0  0
  6  7  1  0  0  0  0
  7  8  1  0  0  0  0
  8  9  2  0  0  0  0
  5  9  1  0  0  0  0
  8 10  1  0  0  0  0
 10 11  1  0  0  0  0
 11 12  1  0  0  0  0
 12 13  1  0  0  0  0
 13 14  1  0  0  0  0
 14 15  1  0  0  0  0
 11 15  1  0  0  0  0
 14 16  1  0  0  0  0
 10 16  1  0  0  0  0
 16 17  1  0  0  0  0
 17 18  1  0  0  0  0
 18 19  1  0  0  0  0
 19 20  2  0  0  0  0
 20 21  1  0  0  0  0
 21 22  2  0  0  0  0
 22 23  1  0  0  0  0
 18 23  2  0  0  0  0
 23 24  1  0  0  0  0
 24 25  1  0  0  0  0
 25 26  1  0  0  0  0
 26 27  2  0  0  0  0
 26 28  1  0  0  0  0
M  END
>  <Name>
CHEMBL33621

>  <Target_Uniprot>
P21731

>  <CHEMBL Canonical SMILES>
CNC(=O)c1coc(n1)C2C3CCC(O3)C2Cc4ccccc4CCC(=O)O

>  <PubMed ID>
8496908

$$$$

  Marvin  08031817322D          

 34 37  0  0  0  0            999 V2000
    0.0134   -1.7724    0.0000 O   0  0  0  0  0  0  0  0  0  0  0  0
    0.5655   -2.3855    0.0000 C   0  0  0  0  0  0  0  0  0  0  0  0
    0.3105   -3.1702    0.0000 O   0  0  0  0  0  0  0  0  0  0  0  0
    1.3724   -2.2140    0.0000 C   0  0  0  0  0  0  0  0  0  0  0  0
    1.6274   -1.4294    0.0000 C   0  0  0  0  0  0  0  0  0  0  0  0
    2.4344   -1.2579    0.0000 C   0  0  0  0  0  0  0  0  0  0  0  0
    2.9864   -1.8710    0.0000 C   0  0  0  0  0  0  0  0  0  0  0  0
    3.7934   -1.6994    0.0000 C   0  0  0  0  0  0  0  0  0  0  0  0
    4.0483   -0.9148    0.0000 C   0  0  0  0  0  0  0  0  0  0  0  0
    3.4963   -0.3017    0.0000 C   0  0  0  0  0  0  0  0  0  0  0  0
    2.6893   -0.4732    0.0000 C   0  0  0  0  0  0  0  0  0  0  0  0
    2.1373    0.1399    0.0000 C   0  0  0  0  0  0  0  0  0  0  0  0
    2.3922    0.9245    0.0000 C   0  0  0  0  0  0  0  0  0  0  0  0
    3.1768    1.1794    0.0000 O   0  0  0  0  0  0  0  0  0  0  0  0
    3.1768    2.0044    0.0000 C   0  0  0  0  0  0  0  0  0  0  0  0
    2.3922    2.2594    0.0000 O   0  0  0  0  0  0  0  0  0  0  0  0
    1.9073    1.5919    0.0000 C   0  0  0  0  0  0  0  0  0  0  0  0
    1.0823    1.5919    0.0000 C   0  0  0  0  0  0  0  0  0  0  0  0
    0.5974    2.2594    0.0000 O   0  0  0  0  0  0  0  0  0  0  0  0
   -0.1873    2.0044    0.0000 C   0  0  0  0  0  0  0  0  0  0  0  0
   -0.1873    1.1794    0.0000 C   0  0  0  0  0  0  0  0  0  0  0  0
    0.5974    0.9245    0.0000 N   0  0  0  0  0  0  0  0  0  0  0  0
   -0.8547    0.6945    0.0000 C   0  0  0  0  0  0  0  0  0  0  0  0
   -0.7685   -0.1260    0.0000 O   0  0  0  0  0  0  0  0  0  0  0  0
   -1.6084    1.0301    0.0000 N   0  0  0  0  0  0  0  0  0  0  0  0
   -2.2758    0.5451    0.0000 C   0  0  0  0  0  0  0  0  0  0  0  0
   -3.0295    0.8807    0.0000 C   0  0  0  0  0  0  0  0  0  0  0  0
   -3.6969    0.3958    0.0000 C   0  0  0  0  0  0  0  0  0  0  0  0
   -4.4506    0.7313    0.0000 C   0  0  0  0  0  0  0  0  0  0  0  0
   -5.1180    0.2464    0.0000 C   0  0  0  0  0  0  0  0  0  0  0  0
   -5.0318   -0.5741    0.0000 C   0  0  0  0  0  0  0  0  0  0  0  0
   -5.6992   -1.0590    0.0000 Cl  0  0  0  0  0  0  0  0  0  0  0  0
   -4.2781   -0.9096    0.0000 C   0  0  0  0  0  0  0  0  0  0  0  0
   -3.6107   -0.4247    0.0000 C   0  0  0  0  0  0  0  0  0  0  0  0
  1  2  1  0  0  0  0
  2  3  2  0  0  0  0
  2  4  1  0  0  0  0
  4  5  1  0  0  0  0
  5  6  1  0  0  0  0
  6  7  1  0  0  0  0
  7  8  2  0  0  0  0
  8  9  1  0  0  0  0
  9 10  2  0  0  0  0
 10 11  1  0  0  0  0
  6 11  2  0  0  0  0
 11 12  1  0  0  0  0
 12 13  1  0  0  0  0
 13 14  1  0  0  0  0
 14 15  1  0  0  0  0
 15 16  1  0  0  0  0
 16 17  1  0  0  0  0
 13 17  1  0  0  0  0
 17 18  1  0  0  0  0
 18 19  1  0  0  0  0
 19 20  1  0  0  0  0
 20 21  2  0  0  0  0
 21 22  1  0  0  0  0
 18 22  2  0  0  0  0
 21 23  1  0  0  0  0
 23 24  2  0  0  0  0
 23 25  1  0  0  0  0
 25 26  1  0  0  0  0
 26 27  1  0  0  0  0
 27 28  1  0  0  0  0
 28 29  1  0  0  0  0
 29 30  2  0  0  0  0
 30 31  1  0  0  0  0
 31 32  1  0  0  0  0
 31 33  2  0  0  0  0
 33 34  1  0  0  0  0
 28 34  2  0  0  0  0
M  END
>  <Name>
CHEMBL23273

>  <Target_Uniprot>
P21731

>  <CHEMBL Canonical SMILES>
OC(=O)CCc1ccccc1CC2OCOC2c3occ(n3)C(=O)NCCc4ccc(Cl)cc4

$$$$

  Marvin  08031817322D          

 33 36  0  0  1  0            999 V2000
   -1.5769   -5.9184    0.0000 C   0  0  0  0  0  0  0  0  0  0  0  0
   -1.2634   -5.1550    0.0000 O   0  0  0  0  0  0  0  0  0  0  0  0
   -0.4590   -4.9712    0.0000 C   0  0  0  0  0  0  0  0  0  0  0  0
    0.1329   -5.5464    0.0000 O   0  0  0  0  0  0  0  0  0  0  0  0
   -0.2438   -4.1745    0.0000 C   0  0  0  0  0  0  0  0  0  0  0  0
    0.5382   -3.9103    0.0000 C   0  0  0  0  0  0  0  0  0  0  0  0
    0.8707   -3.1554    0.0000 C   0  0  0  0  0  0  0  0  0  0  0  0
    1.6655   -2.9417    0.0000 C   0  0  0  0  0  0  0  0  0  0  0  0
    1.8940   -2.1548    0.0000 C   0  0  0  0  0  0  0  0  0  0  0  0
    1.3811   -1.5216    0.0000 C   0  0  0  0  0  0  0  0  0  0  0  0
    1.6969   -0.7821    0.0000 C   0  0  1  0  0  0  0  0  0  0  0  0
    2.5687   -0.6002    0.0000 C   0  0  2  0  0  0  0  0  0  0  0  0
    3.1123    0.2106    0.0000 C   0  0  0  0  0  0  0  0  0  0  0  0
    2.5627    0.9152    0.0000 C   0  0  0  0  0  0  0  0  0  0  0  0
    1.9009    0.4848    0.0000 C   0  0  1  0  0  0  0  0  0  0  0  0
    2.7223    0.0083    0.0000 C   0  0  0  0  0  0  0  0  0  0  0  0
    1.2967   -0.0703    0.0000 C   0  0  2  0  0  0  0  0  0  0  0  0
    0.3964   -0.0443    0.0000 N   0  0  0  0  0  0  0  0  0  0  0  0
   -0.1334    0.6173    0.0000 S   0  0  0  0  0  0  0  0  0  0  0  0
   -0.8408    0.1831    0.0000 O   0  0  0  0  0  0  0  0  0  0  0  0
    0.5565    1.0783    0.0000 O   0  0  0  0  0  0  0  0  0  0  0  0
   -0.5314    1.3447    0.0000 C   0  0  0  0  0  0  0  0  0  0  0  0
   -0.1246    2.0642    0.0000 C   0  0  0  0  0  0  0  0  0  0  0  0
   -0.5433    2.7737    0.0000 C   0  0  0  0  0  0  0  0  0  0  0  0
   -1.3681    2.7633    0.0000 C   0  0  0  0  0  0  0  0  0  0  0  0
   -1.7759    2.0459    0.0000 C   0  0  0  0  0  0  0  0  0  0  0  0
   -1.3567    1.3357    0.0000 C   0  0  0  0  0  0  0  0  0  0  0  0
   -1.7680    3.4740    0.0000 C   0  0  0  0  0  0  0  0  0  0  0  0
   -1.3537    4.1868    0.0000 C   0  0  0  0  0  0  0  0  0  0  0  0
   -1.7663    4.9015    0.0000 C   0  0  0  0  0  0  0  0  0  0  0  0
   -2.5924    4.9016    0.0000 C   0  0  0  0  0  0  0  0  0  0  0  0
   -3.0054    4.1860    0.0000 C   0  0  0  0  0  0  0  0  0  0  0  0
   -2.5926    3.4714    0.0000 C   0  0  0  0  0  0  0  0  0  0  0  0
  1  2  1  0  0  0  0
  2  3  1  0  0  0  0
  3  4  2  0  0  0  0
  3  5  1  0  0  0  0
  5  6  1  0  0  0  0
  6  7  1  0  0  0  0
  7  8  1  0  0  0  0
  8  9  2  0  0  0  0
  9 10  1  0  0  0  0
 11 10  1  6  0  0  0
 11 12  1  0  0  0  0
 12 13  1  0  0  0  0
 13 14  1  0  0  0  0
 14 15  1  0  0  0  0
 15 16  1  6  0  0  0
 12 16  1  6  0  0  0
 15 17  1  0  0  0  0
 11 17  1  0  0  0  0
 17 18  1  1  0  0  0
 18 19  1  0  0  0  0
 19 20  2  0  0  0  0
 19 21  2  0  0  0  0
 19 22  1  0  0  0  0
 22 23  1  0  0  0  0
 23 24  2  0  0  0  0
 24 25  1  0  0  0  0
 25 26  2  0  0  0  0
 26 27  1  0  0  0  0
 22 27  2  0  0  0  0
 25 28  1  0  0  0  0
 28 29  1  0  0  0  0
 29 30  2  0  0  0  0
 30 31  1  0  0  0  0
 31 32  2  0  0  0  0
 32 33  1  0  0  0  0
 28 33  2  0  0  0  0
M  END
>  <Name>
CHEMBL325026

>  <Target_Uniprot>
P21731

>  <CHEMBL Canonical SMILES>
COC(=O)CCC\C=C/C[C@H]1[C@@H]2CC[C@@H](C2)[C@@H]1NS(=O)(=O)c3ccc(cc3)c4ccccc4

>  <PubMed ID>
9357516

$$$$

  Marvin  08031817322D          

 30 33  0  0  0  0            999 V2000
    3.0013    0.3395    0.0000 O   0  0  0  0  0  0  0  0  0  0  0  0
    3.0013    1.1645    0.0000 C   0  0  0  0  0  0  0  0  0  0  0  0
    3.7158    1.5770    0.0000 O   0  0  0  0  0  0  0  0  0  0  0  0
    2.2868    1.5770    0.0000 C   0  0  0  0  0  0  0  0  0  0  0  0
    2.2868    2.4020    0.0000 C   0  0  0  0  0  0  0  0  0  0  0  0
    1.5724    2.8145    0.0000 C   0  0  0  0  0  0  0  0  0  0  0  0
    0.8579    2.4020    0.0000 C   0  0  0  0  0  0  0  0  0  0  0  0
    0.2129    2.9164    0.0000 O   0  0  0  0  0  0  0  0  0  0  0  0
   -0.5914    2.7328    0.0000 C   0  0  0  0  0  0  0  0  0  0  0  0
   -0.9494    1.9895    0.0000 C   0  0  0  0  0  0  0  0  0  0  0  0
   -1.7721    2.0512    0.0000 C   0  0  0  0  0  0  0  0  0  0  0  0
   -2.2368    1.3695    0.0000 C   0  0  0  0  0  0  0  0  0  0  0  0
   -1.8789    0.6262    0.0000 C   0  0  0  0  0  0  0  0  0  0  0  0
   -1.0562    0.5646    0.0000 C   0  0  0  0  0  0  0  0  0  0  0  0
   -0.5914    1.2462    0.0000 C   0  0  0  0  0  0  0  0  0  0  0  0
    0.2129    1.0626    0.0000 C   0  0  0  0  0  0  0  0  0  0  0  0
    0.3965    0.2583    0.0000 S   0  0  0  0  0  0  0  0  0  0  0  0
   -0.2083   -0.3028    0.0000 C   0  0  0  0  0  0  0  0  0  0  0  0
   -0.0247   -1.1071    0.0000 C   0  0  0  0  0  0  0  0  0  0  0  0
   -0.6295   -1.6683    0.0000 N   0  0  0  0  0  0  0  0  0  0  0  0
   -0.4459   -2.4726    0.0000 C   0  0  0  0  0  0  0  0  0  0  0  0
    0.3424   -2.7158    0.0000 O   0  0  0  0  0  0  0  0  0  0  0  0
   -1.0507   -3.0337    0.0000 C   0  0  0  0  0  0  0  0  0  0  0  0
   -1.8390   -2.7906    0.0000 C   0  0  0  0  0  0  0  0  0  0  0  0
   -2.4438   -3.3517    0.0000 C   0  0  0  0  0  0  0  0  0  0  0  0
   -2.2602   -4.1560    0.0000 C   0  0  0  0  0  0  0  0  0  0  0  0
   -1.4719   -4.3992    0.0000 C   0  0  0  0  0  0  0  0  0  0  0  0
   -0.8671   -3.8380    0.0000 C   0  0  0  0  0  0  0  0  0  0  0  0
    0.8579    1.5770    0.0000 C   0  0  0  0  0  0  0  0  0  0  0  0
    1.5724    1.1645    0.0000 C   0  0  0  0  0  0  0  0  0  0  0  0
  1  2  1  0  0  0  0
  2  3  2  0  0  0  0
  2  4  1  0  0  0  0
  4  5  1  0  0  0  0
  5  6  2  0  0  0  0
  6  7  1  0  0  0  0
  7  8  1  0  0  0  0
  8  9  1  0  0  0  0
  9 10  1  0  0  0  0
 10 11  1  0  0  0  0
 11 12  2  0  0  0  0
 12 13  1  0  0  0  0
 13 14  2  0  0  0  0
 14 15  1  0  0  0  0
 10 15  2  0  0  0  0
 15 16  1  0  0  0  0
 16 17  1  0  0  0  0
 17 18  1  0  0  0  0
 18 19  1  0  0  0  0
 19 20  1  0  0  0  0
 20 21  1  0  0  0  0
 21 22  2  0  0  0  0
 21 23  1  0  0  0  0
 23 24  1  0  0  0  0
 24 25  2  0  0  0  0
 25 26  1  0  0  0  0
 26 27  2  0  0  0  0
 27 28  1  0  0  0  0
 23 28  2  0  0  0  0
 16 29  1  0  0  0  0
  7 29  2  0  0  0  0
 29 30  1  0  0  0  0
  4 30  2  0  0  0  0
M  END
>  <Name>
CHEMBL325743

>  <Target_Uniprot>
P21731

>  <CHEMBL Canonical SMILES>
OC(=O)c1ccc2OCc3ccccc3C(SCCNC(=O)c4ccccc4)c2c1

>  <PubMed ID>
1388207

$$$$

  Marvin  08031817322D          

 32 36  0  0  0  0            999 V2000
   -0.4370   -0.3433    0.0000 C   0  0  0  0  0  0  0  0  0  0  0  0
   -1.2620   -0.3433    0.0000 S   0  0  0  0  0  0  0  0  0  0  0  0
   -2.0870   -0.3433    0.0000 O   0  0  0  0  0  0  0  0  0  0  0  0
   -1.6745   -1.0578    0.0000 O   0  0  0  0  0  0  0  0  0  0  0  0
   -1.2620    0.4817    0.0000 C   0  0  0  0  0  0  0  0  0  0  0  0
   -1.9764    0.8942    0.0000 C   0  0  0  0  0  0  0  0  0  0  0  0
   -1.9764    1.7192    0.0000 C   0  0  0  0  0  0  0  0  0  0  0  0
   -1.2620    2.1317    0.0000 N   0  0  0  0  0  0  0  0  0  0  0  0
   -0.5475    1.7192    0.0000 C   0  0  0  0  0  0  0  0  0  0  0  0
   -0.5475    0.8942    0.0000 C   0  0  0  0  0  0  0  0  0  0  0  0
    0.2371    0.6393    0.0000 C   0  0  0  0  0  0  0  0  0  0  0  0
    0.4921   -0.1454    0.0000 S   0  0  0  0  0  0  0  0  0  0  0  0
   -0.0600   -0.7584    0.0000 C   0  0  0  0  0  0  0  0  0  0  0  0
   -0.8669   -0.5869    0.0000 C   0  0  0  0  0  0  0  0  0  0  0  0
   -1.4190   -1.2000    0.0000 C   0  0  0  0  0  0  0  0  0  0  0  0
   -1.1640   -1.9846    0.0000 C   0  0  0  0  0  0  0  0  0  0  0  0
   -0.3571   -2.1562    0.0000 C   0  0  0  0  0  0  0  0  0  0  0  0
   -0.1021   -2.9408    0.0000 C   0  0  0  0  0  0  0  0  0  0  0  0
    0.7049   -3.1123    0.0000 C   0  0  0  0  0  0  0  0  0  0  0  0
    1.2569   -2.4992    0.0000 C   0  0  0  0  0  0  0  0  0  0  0  0
    1.0019   -1.7146    0.0000 C   0  0  0  0  0  0  0  0  0  0  0  0
    0.1950   -1.5431    0.0000 C   0  0  0  0  0  0  0  0  0  0  0  0
    0.7221    1.3067    0.0000 C   0  0  0  0  0  0  0  0  0  0  0  0
    1.5425    1.3929    0.0000 C   0  0  0  0  0  0  0  0  0  0  0  0
    2.0275    0.7255    0.0000 C   0  0  0  0  0  0  0  0  0  0  0  0
    1.6919   -0.0282    0.0000 C   0  0  0  0  0  0  0  0  0  0  0  0
    0.8714   -0.1144    0.0000 O   0  0  0  0  0  0  0  0  0  0  0  0
    2.1768   -0.6956    0.0000 O   0  0  0  0  0  0  0  0  0  0  0  0
    1.8781    2.1466    0.0000 C   0  0  0  0  0  0  0  0  0  0  0  0
    1.3932    2.8141    0.0000 C   0  0  0  0  0  0  0  0  0  0  0  0
    0.5727    2.7278    0.0000 C   0  0  0  0  0  0  0  0  0  0  0  0
    0.2371    1.9741    0.0000 N   0  0  0  0  0  0  0  0  0  0  0  0
  1  2  1  0  0  0  0
  2  3  2  0  0  0  0
  2  4  2  0  0  0  0
  2  5  1  0  0  0  0
  5  6  1  0  0  0  0
  6  7  2  0  0  0  0
  7  8  1  0  0  0  0
  8  9  2  0  0  0  0
  9 10  1  0  0  0  0
  5 10  2  0  0  0  0
 10 11  1  0  0  0  0
 11 12  1  0  0  0  0
 12 13  1  0  0  0  0
 13 14  1  0  0  0  0
 14 15  2  0  0  0  0
 15 16  1  0  0  0  0
 16 17  2  0  0  0  0
 17 18  1  0  0  0  0
 18 19  2  0  0  0  0
 19 20  1  0  0  0  0
 20 21  2  0  0  0  0
 21 22  1  0  0  0  0
 13 22  2  0  0  0  0
 17 22  1  0  0  0  0
 11 23  2  0  0  0  0
 23 24  1  0  0  0  0
 24 25  1  0  0  0  0
 25 26  1  0  0  0  0
 26 27  2  0  0  0  0
 26 28  1  0  0  0  0
 24 29  1  0  0  0  0
 29 30  1  0  0  0  0
 30 31  1  0  0  0  0
 31 32  1  0  0  0  0
  9 32  1  0  0  0  0
 23 32  1  0  0  0  0
M  END
>  <Name>
CHEMBL519862

>  <Target_Uniprot>
P21731

>  <CHEMBL Canonical SMILES>
CS(=O)(=O)c1ccnc2c1c(Sc3cccc4ccccc34)c5C(CC(=O)O)CCCn25

>  <PubMed ID>
19307115

$$$$

  Marvin  08031817322D          

 35 37  0  0  0  0            999 V2000
   -2.1638   -4.8321    0.0000 C   0  0  0  0  0  0  0  0  0  0  0  0
   -2.1638   -4.0071    0.0000 C   0  0  0  0  0  0  0  0  0  0  0  0
   -1.4494   -3.5946    0.0000 C   0  0  0  0  0  0  0  0  0  0  0  0
   -1.4494   -2.7696    0.0000 C   0  0  0  0  0  0  0  0  0  0  0  0
   -0.7349   -2.3571    0.0000 C   0  0  0  0  0  0  0  0  0  0  0  0
   -2.1638   -2.3571    0.0000 C   0  0  0  0  0  0  0  0  0  0  0  0
   -2.8783   -2.7696    0.0000 C   0  0  0  0  0  0  0  0  0  0  0  0
   -3.5928   -2.3571    0.0000 C   0  0  0  0  0  0  0  0  0  0  0  0
   -2.8783   -3.5946    0.0000 C   0  0  0  0  0  0  0  0  0  0  0  0
   -2.1638   -1.5321    0.0000 S   0  0  0  0  0  0  0  0  0  0  0  0
   -2.9888   -1.5321    0.0000 O   0  0  0  0  0  0  0  0  0  0  0  0
   -1.3388   -1.5321    0.0000 O   0  0  0  0  0  0  0  0  0  0  0  0
   -2.1638   -0.7071    0.0000 N   0  0  0  0  0  0  0  0  0  0  0  0
   -1.4494   -0.2946    0.0000 C   0  0  0  0  0  0  0  0  0  0  0  0
   -1.4494    0.5304    0.0000 C   0  0  0  0  0  0  0  0  0  0  0  0
   -0.7349    0.9429    0.0000 C   0  0  0  0  0  0  0  0  0  0  0  0
   -0.0204    0.5304    0.0000 C   0  0  0  0  0  0  0  0  0  0  0  0
    0.6941    0.9429    0.0000 C   0  0  0  0  0  0  0  0  0  0  0  0
    0.6941    1.7679    0.0000 C   0  0  0  0  0  0  0  0  0  0  0  0
   -0.0204    2.1804    0.0000 C   0  0  0  0  0  0  0  0  0  0  0  0
   -0.7349    1.7679    0.0000 C   0  0  0  0  0  0  0  0  0  0  0  0
    1.4085    2.1804    0.0000 C   0  0  0  0  0  0  0  0  0  0  0  0
    2.1230    1.7679    0.0000 C   0  0  0  0  0  0  0  0  0  0  0  0
    2.1230    0.9429    0.0000 C   0  0  0  0  0  0  0  0  0  0  0  0
    2.8375    0.5304    0.0000 C   0  0  0  0  0  0  0  0  0  0  0  0
    2.8375   -0.2946    0.0000 C   0  0  0  0  0  0  0  0  0  0  0  0
    3.5519   -0.7071    0.0000 C   0  0  0  0  0  0  0  0  0  0  0  0
    4.2664   -0.2946    0.0000 O   0  0  0  0  0  0  0  0  0  0  0  0
    3.5519   -1.5321    0.0000 O   0  0  0  0  0  0  0  0  0  0  0  0
    1.4085    3.0054    0.0000 C   0  0  0  0  0  0  0  0  0  0  0  0
    2.1230    3.4179    0.0000 C   0  0  0  0  0  0  0  0  0  0  0  0
    2.1230    4.2429    0.0000 C   0  0  0  0  0  0  0  0  0  0  0  0
    1.4085    4.6554    0.0000 C   0  0  0  0  0  0  0  0  0  0  0  0
    0.6941    4.2429    0.0000 N   0  0  0  0  0  0  0  0  0  0  0  0
    0.6941    3.4179    0.0000 C   0  0  0  0  0  0  0  0  0  0  0  0
  1  2  1  0  0  0  0
  2  3  1  0  0  0  0
  3  4  2  0  0  0  0
  4  5  1  0  0  0  0
  4  6  1  0  0  0  0
  6  7  2  0  0  0  0
  7  8  1  0  0  0  0
  7  9  1  0  0  0  0
  2  9  2  0  0  0  0
  6 10  1  0  0  0  0
 10 11  2  0  0  0  0
 10 12  2  0  0  0  0
 10 13  1  0  0  0  0
 13 14  1  0  0  0  0
 14 15  1  0  0  0  0
 15 16  1  0  0  0  0
 16 17  1  0  0  0  0
 17 18  2  0  0  0  0
 18 19  1  0  0  0  0
 19 20  2  0  0  0  0
 20 21  1  0  0  0  0
 16 21  2  0  0  0  0
 19 22  1  0  0  0  0
 22 23  2  0  0  0  0
 23 24  1  0  0  0  0
 24 25  1  0  0  0  0
 25 26  1  0  0  0  0
 26 27  1  0  0  0  0
 27 28  2  0  0  0  0
 27 29  1  0  0  0  0
 22 30  1  0  0  0  0
 30 31  1  0  0  0  0
 31 32  2  0  0  0  0
 32 33  1  0  0  0  0
 33 34  2  0  0  0  0
 34 35  1  0  0  0  0
 30 35  2  0  0  0  0
M  END
>  <Name>
CHEMBL338588

>  <Target_Uniprot>
P21731

>  <CHEMBL Canonical SMILES>
Cc1cc(C)c(c(C)c1)S(=O)(=O)NCCc2ccc(cc2)\C(=C/CCCC(=O)O)\c3cccnc3

>  <PubMed ID>
8289199

$$$$

  Marvin  08031817322D          

 28 31  0  0  0  0            999 V2000
   -0.3239    1.1596    0.0000 O   0  0  0  0  0  0  0  0  0  0  0  0
    0.4112    1.5342    0.0000 C   0  0  0  0  0  0  0  0  0  0  0  0
    0.4544    2.3581    0.0000 O   0  0  0  0  0  0  0  0  0  0  0  0
    1.1031    1.0849    0.0000 C   0  0  0  0  0  0  0  0  0  0  0  0
    1.9270    1.0417    0.0000 C   0  0  0  0  0  0  0  0  0  0  0  0
    1.5145    0.3272    0.0000 C   0  0  0  0  0  0  0  0  0  0  0  0
    0.6895    0.3272    0.0000 C   0  0  0  0  0  0  0  0  0  0  0  0
    0.2046    0.9947    0.0000 N   0  0  0  0  0  0  0  0  0  0  0  0
   -0.5801    0.7397    0.0000 C   0  0  0  0  0  0  0  0  0  0  0  0
   -1.2945    1.1522    0.0000 C   0  0  0  0  0  0  0  0  0  0  0  0
   -2.0090    0.7397    0.0000 C   0  0  0  0  0  0  0  0  0  0  0  0
   -2.7235    1.1522    0.0000 F   0  0  0  0  0  0  0  0  0  0  0  0
   -2.0090   -0.0853    0.0000 C   0  0  0  0  0  0  0  0  0  0  0  0
   -1.2945   -0.4978    0.0000 C   0  0  0  0  0  0  0  0  0  0  0  0
   -0.5801   -0.0853    0.0000 C   0  0  0  0  0  0  0  0  0  0  0  0
    0.2046   -0.3402    0.0000 N   0  0  0  0  0  0  0  0  0  0  0  0
    0.4595   -1.1248    0.0000 C   0  0  0  0  0  0  0  0  0  0  0  0
   -0.0925   -1.7379    0.0000 C   0  0  0  0  0  0  0  0  0  0  0  0
   -0.8995   -1.5664    0.0000 C   0  0  0  0  0  0  0  0  0  0  0  0
   -1.4515   -2.1795    0.0000 C   0  0  0  0  0  0  0  0  0  0  0  0
   -1.1966   -2.9641    0.0000 C   0  0  0  0  0  0  0  0  0  0  0  0
   -1.7486   -3.5772    0.0000 Cl  0  0  0  0  0  0  0  0  0  0  0  0
   -0.3896   -3.1357    0.0000 C   0  0  0  0  0  0  0  0  0  0  0  0
    0.1624   -2.5226    0.0000 C   0  0  0  0  0  0  0  0  0  0  0  0
    2.7475    1.1279    0.0000 C   0  0  0  0  0  0  0  0  0  0  0  0
    2.9190    1.9349    0.0000 C   0  0  0  0  0  0  0  0  0  0  0  0
    2.2045    2.3474    0.0000 C   0  0  0  0  0  0  0  0  0  0  0  0
    1.5914    1.7954    0.0000 C   0  0  0  0  0  0  0  0  0  0  0  0
  1  2  1  0  0  0  0
  2  3  2  0  0  0  0
  2  4  1  0  0  0  0
  4  5  1  0  0  0  0
  5  6  1  0  0  0  0
  6  7  1  0  0  0  0
  7  8  2  0  0  0  0
  8  9  1  0  0  0  0
  9 10  1  0  0  0  0
 10 11  2  0  0  0  0
 11 12  1  0  0  0  0
 11 13  1  0  0  0  0
 13 14  2  0  0  0  0
 14 15  1  0  0  0  0
  9 15  2  0  0  0  0
 15 16  1  0  0  0  0
  7 16  1  0  0  0  0
 16 17  1  0  0  0  0
 17 18  1  0  0  0  0
 18 19  1  0  0  0  0
 19 20  2  0  0  0  0
 20 21  1  0  0  0  0
 21 22  1  0  0  0  0
 21 23  2  0  0  0  0
 23 24  1  0  0  0  0
 18 24  2  0  0  0  0
  5 25  1  0  0  0  0
 25 26  1  0  0  0  0
 26 27  1  0  0  0  0
 27 28  1  0  0  0  0
  5 28  1  0  0  0  0
M  END
>  <Name>
CHEMBL18206

>  <Target_Uniprot>
P21731

>  <CHEMBL Canonical SMILES>
OC(=O)CC1(Cc2nc3cc(F)ccc3n2Cc4ccc(Cl)cc4)CCCC1

>  <PubMed ID>
8487256

$$$$

  Marvin  08031817322D          

 32 34  0  0  0  0            999 V2000
   -4.9304   -3.4608    0.0000 O   0  0  0  0  0  0  0  0  0  0  0  0
   -5.5627   -2.9288    0.0000 C   0  0  0  0  0  0  0  0  0  0  0  0
   -6.3862   -2.9950    0.0000 O   0  0  0  0  0  0  0  0  0  0  0  0
   -5.3001   -2.1455    0.0000 C   0  0  0  0  0  0  0  0  0  0  0  0
   -4.5236   -1.8636    0.0000 C   0  0  0  0  0  0  0  0  0  0  0  0
   -4.1950   -1.1061    0.0000 C   0  0  0  0  0  0  0  0  0  0  0  0
   -3.4044   -0.8815    0.0000 C   0  0  0  0  0  0  0  0  0  0  0  0
   -3.1178   -0.1205    0.0000 C   0  0  0  0  0  0  0  0  0  0  0  0
   -2.3268    0.0586    0.0000 C   0  0  0  0  0  0  0  0  0  0  0  0
   -2.0188    0.8196    0.0000 C   0  0  0  0  0  0  0  0  0  0  0  0
   -1.2578    1.1258    0.0000 C   0  0  0  0  0  0  0  0  0  0  0  0
   -0.5977    0.6460    0.0000 C   0  0  0  0  0  0  0  0  0  0  0  0
    0.1699    0.8946    0.0000 N   0  0  0  0  0  0  0  0  0  0  0  0
    0.7927    0.3741    0.0000 C   0  0  0  0  0  0  0  0  0  0  0  0
    0.7105   -0.4436    0.0000 O   0  0  0  0  0  0  0  0  0  0  0  0
    1.5268    0.7457    0.0000 C   0  0  0  0  0  0  0  0  0  0  0  0
    2.2617    0.3696    0.0000 N   0  0  0  0  0  0  0  0  0  0  0  0
    2.9950    0.7429    0.0000 C   0  0  0  0  0  0  0  0  0  0  0  0
    3.0797    1.5605    0.0000 O   0  0  0  0  0  0  0  0  0  0  0  0
    3.6156    0.2188    0.0000 C   0  0  0  0  0  0  0  0  0  0  0  0
    4.3952    0.4616    0.0000 S   0  0  0  0  0  0  0  0  0  0  0  0
    5.0997    0.0097    0.0000 C   0  0  0  0  0  0  0  0  0  0  0  0
    5.0155   -0.8110    0.0000 C   0  0  0  0  0  0  0  0  0  0  0  0
    5.6877   -1.3028    0.0000 C   0  0  0  0  0  0  0  0  0  0  0  0
    6.4406   -0.9747    0.0000 C   0  0  0  0  0  0  0  0  0  0  0  0
    6.5293   -0.1586    0.0000 C   0  0  0  0  0  0  0  0  0  0  0  0
    5.8591    0.3361    0.0000 C   0  0  0  0  0  0  0  0  0  0  0  0
   -1.3644    2.0093    0.0000 C   0  0  0  0  0  0  0  0  0  0  0  0
   -1.8764    2.7851    0.0000 C   0  0  0  0  0  0  0  0  0  0  0  0
   -2.7004    2.4611    0.0000 C   0  0  0  0  0  0  0  0  0  0  0  0
   -2.5496    1.5385    0.0000 C   0  0  0  0  0  0  0  0  0  0  0  0
   -2.0667    2.0348    0.0000 O   0  0  0  0  0  0  0  0  0  0  0  0
  1  2  1  0  0  0  0
  2  3  2  0  0  0  0
  2  4  1  0  0  0  0
  4  5  1  0  0  0  0
  5  6  1  0  0  0  0
  6  7  1  0  0  0  0
  7  8  2  0  0  0  0
  8  9  1  0  0  0  0
  9 10  1  0  0  0  0
 10 11  1  0  0  0  0
 11 12  1  0  0  0  0
 12 13  1  0  0  0  0
 13 14  1  0  0  0  0
 14 15  2  0  0  0  0
 14 16  1  0  0  0  0
 16 17  1  0  0  0  0
 17 18  1  0  0  0  0
 18 19  2  0  0  0  0
 18 20  1  0  0  0  0
 20 21  1  0  0  0  0
 21 22  1  0  0  0  0
 22 23  1  0  0  0  0
 23 24  2  0  0  0  0
 24 25  1  0  0  0  0
 25 26  2  0  0  0  0
 26 27  1  0  0  0  0
 22 27  2  0  0  0  0
 11 28  1  0  0  0  0
 28 29  1  0  0  0  0
 29 30  1  0  0  0  0
 30 31  1  0  0  0  0
 10 31  1  0  0  0  0
 31 32  1  0  0  0  0
 28 32  1  0  0  0  0
M  END
>  <Name>
CHEMBL79278

>  <Target_Uniprot>
P21731

>  <CHEMBL Canonical SMILES>
OC(=O)CCC\C=C\CC1C(CNC(=O)CNC(=O)CSc2ccccc2)C3CCC1O3

>  <PubMed ID>
2391688

$$$$

  Marvin  08031817322D          

 32 34  0  0  0  0            999 V2000
   -3.5500   -1.4309    0.0000 O   0  0  0  0  0  0  0  0  0  0  0  0
   -3.5500   -2.2559    0.0000 C   0  0  0  0  0  0  0  0  0  0  0  0
   -4.2645   -2.6684    0.0000 O   0  0  0  0  0  0  0  0  0  0  0  0
   -2.8356   -2.6684    0.0000 C   0  0  0  0  0  0  0  0  0  0  0  0
   -2.1211   -2.2559    0.0000 C   0  0  0  0  0  0  0  0  0  0  0  0
   -1.4066   -2.6684    0.0000 C   0  0  0  0  0  0  0  0  0  0  0  0
   -0.6921   -2.2559    0.0000 C   0  0  0  0  0  0  0  0  0  0  0  0
   -0.6921   -1.4309    0.0000 C   0  0  0  0  0  0  0  0  0  0  0  0
    0.0223   -1.0184    0.0000 C   0  0  0  0  0  0  0  0  0  0  0  0
    0.0223   -0.1934    0.0000 C   0  0  0  0  0  0  0  0  0  0  0  0
   -0.6921    0.2191    0.0000 C   0  0  0  0  0  0  0  0  0  0  0  0
   -0.6921    1.0441    0.0000 C   0  0  0  0  0  0  0  0  0  0  0  0
    0.0223    1.4566    0.0000 C   0  0  0  0  0  0  0  0  0  0  0  0
    0.0223    2.2816    0.0000 N   0  0  0  0  0  0  0  0  0  0  0  0
    0.7368    2.6941    0.0000 S   0  0  0  0  0  0  0  0  0  0  0  0
    0.3243    3.4086    0.0000 O   0  0  0  0  0  0  0  0  0  0  0  0
    1.1493    1.9797    0.0000 O   0  0  0  0  0  0  0  0  0  0  0  0
    1.4513    3.1066    0.0000 C   0  0  0  0  0  0  0  0  0  0  0  0
    2.1657    2.6941    0.0000 C   0  0  0  0  0  0  0  0  0  0  0  0
    2.8802    3.1066    0.0000 C   0  0  0  0  0  0  0  0  0  0  0  0
    2.8802    3.9316    0.0000 C   0  0  0  0  0  0  0  0  0  0  0  0
    3.5947    4.3441    0.0000 Cl  0  0  0  0  0  0  0  0  0  0  0  0
    2.1657    4.3441    0.0000 C   0  0  0  0  0  0  0  0  0  0  0  0
    1.4513    3.9316    0.0000 C   0  0  0  0  0  0  0  0  0  0  0  0
   -1.4066   -0.1934    0.0000 C   0  0  0  0  0  0  0  0  0  0  0  0
   -1.4066   -1.0184    0.0000 C   0  0  0  0  0  0  0  0  0  0  0  0
    0.0223   -2.6684    0.0000 C   0  0  0  0  0  0  0  0  0  0  0  0
    0.0223   -3.4934    0.0000 C   0  0  0  0  0  0  0  0  0  0  0  0
    0.7368   -3.9059    0.0000 C   0  0  0  0  0  0  0  0  0  0  0  0
    1.4513   -3.4934    0.0000 C   0  0  0  0  0  0  0  0  0  0  0  0
    1.4513   -2.6684    0.0000 N   0  0  0  0  0  0  0  0  0  0  0  0
    0.7368   -2.2559    0.0000 C   0  0  0  0  0  0  0  0  0  0  0  0
  1  2  1  0  0  0  0
  2  3  2  0  0  0  0
  2  4  1  0  0  0  0
  4  5  1  0  0  0  0
  5  6  1  0  0  0  0
  6  7  2  0  0  0  0
  7  8  1  0  0  0  0
  8  9  1  0  0  0  0
  9 10  2  0  0  0  0
 10 11  1  0  0  0  0
 11 12  1  0  0  0  0
 12 13  1  0  0  0  0
 13 14  1  0  0  0  0
 14 15  1  0  0  0  0
 15 16  2  0  0  0  0
 15 17  2  0  0  0  0
 15 18  1  0  0  0  0
 18 19  1  0  0  0  0
 19 20  2  0  0  0  0
 20 21  1  0  0  0  0
 21 22  1  0  0  0  0
 21 23  2  0  0  0  0
 23 24  1  0  0  0  0
 18 24  2  0  0  0  0
 11 25  2  0  0  0  0
 25 26  1  0  0  0  0
  8 26  2  0  0  0  0
  7 27  1  0  0  0  0
 27 28  1  0  0  0  0
 28 29  2  0  0  0  0
 29 30  1  0  0  0  0
 30 31  2  0  0  0  0
 31 32  1  0  0  0  0
 27 32  2  0  0  0  0
M  END
>  <Name>
CHEMBL419774

>  <Target_Uniprot>
P21731

>  <CHEMBL Canonical SMILES>
OC(=O)CC\C=C(/c1ccc(CCNS(=O)(=O)c2ccc(Cl)cc2)cc1)\c3cccnc3

>  <PubMed ID>
8289199

$$$$

  Marvin  08031817322D          

 30 32  0  0  0  0            999 V2000
   -3.2926   -3.7710    0.0000 O   0  0  0  0  0  0  0  0  0  0  0  0
   -2.5781   -4.1835    0.0000 C   0  0  0  0  0  0  0  0  0  0  0  0
   -2.5781   -5.0085    0.0000 O   0  0  0  0  0  0  0  0  0  0  0  0
   -1.8637   -3.7710    0.0000 C   0  0  0  0  0  0  0  0  0  0  0  0
   -1.8637   -2.9460    0.0000 C   0  0  0  0  0  0  0  0  0  0  0  0
   -1.1492   -2.5335    0.0000 C   0  0  0  0  0  0  0  0  0  0  0  0
   -1.1492   -1.7085    0.0000 C   0  0  0  0  0  0  0  0  0  0  0  0
   -0.4347   -1.2960    0.0000 O   0  0  0  0  0  0  0  0  0  0  0  0
   -0.4347   -0.4710    0.0000 N   0  0  0  0  0  0  0  0  0  0  0  0
    0.2798   -0.0585    0.0000 C   0  0  0  0  0  0  0  0  0  0  0  0
    0.2798    0.7665    0.0000 C   0  0  0  0  0  0  0  0  0  0  0  0
   -0.4347    1.1790    0.0000 C   0  0  0  0  0  0  0  0  0  0  0  0
   -0.4347    2.0040    0.0000 C   0  0  0  0  0  0  0  0  0  0  0  0
    0.2798    2.4165    0.0000 C   0  0  0  0  0  0  0  0  0  0  0  0
    0.2798    3.2415    0.0000 C   0  0  0  0  0  0  0  0  0  0  0  0
   -0.4347    3.6540    0.0000 C   0  0  0  0  0  0  0  0  0  0  0  0
   -0.4347    4.4790    0.0000 Cl  0  0  0  0  0  0  0  0  0  0  0  0
   -1.1492    3.2415    0.0000 C   0  0  0  0  0  0  0  0  0  0  0  0
   -1.1492    2.4165    0.0000 C   0  0  0  0  0  0  0  0  0  0  0  0
    0.9942    1.1790    0.0000 N   0  0  0  0  0  0  0  0  0  0  0  0
    1.7479    0.8435    0.0000 C   0  0  0  0  0  0  0  0  0  0  0  0
    2.2999    1.4566    0.0000 C   0  0  0  0  0  0  0  0  0  0  0  0
    1.8874    2.1710    0.0000 N   0  0  0  0  0  0  0  0  0  0  0  0
    1.0805    1.9995    0.0000 C   0  0  0  0  0  0  0  0  0  0  0  0
    0.9942   -0.4710    0.0000 C   0  0  0  0  0  0  0  0  0  0  0  0
    0.9942   -1.2960    0.0000 C   0  0  0  0  0  0  0  0  0  0  0  0
    1.7087   -1.7085    0.0000 C   0  0  0  0  0  0  0  0  0  0  0  0
    2.4232   -1.2960    0.0000 C   0  0  0  0  0  0  0  0  0  0  0  0
    2.4232   -0.4710    0.0000 C   0  0  0  0  0  0  0  0  0  0  0  0
    1.7087   -0.0585    0.0000 C   0  0  0  0  0  0  0  0  0  0  0  0
  1  2  1  0  0  0  0
  2  3  2  0  0  0  0
  2  4  1  0  0  0  0
  4  5  1  0  0  0  0
  5  6  1  0  0  0  0
  6  7  1  0  0  0  0
  7  8  1  0  0  0  0
  8  9  1  0  0  0  0
  9 10  2  0  0  0  0
 10 11  1  0  0  0  0
 11 12  1  0  0  0  0
 12 13  1  0  0  0  0
 13 14  1  0  0  0  0
 14 15  2  0  0  0  0
 15 16  1  0  0  0  0
 16 17  1  0  0  0  0
 16 18  2  0  0  0  0
 18 19  1  0  0  0  0
 13 19  2  0  0  0  0
 11 20  1  0  0  0  0
 20 21  1  0  0  0  0
 21 22  2  0  0  0  0
 22 23  1  0  0  0  0
 23 24  2  0  0  0  0
 20 24  1  0  0  0  0
 10 25  1  0  0  0  0
 25 26  1  0  0  0  0
 26 27  2  0  0  0  0
 27 28  1  0  0  0  0
 28 29  2  0  0  0  0
 29 30  1  0  0  0  0
 25 30  2  0  0  0  0
M  END
>  <Name>
CHEMBL339877

>  <Target_Uniprot>
P21731

>  <CHEMBL Canonical SMILES>
OC(=O)CCCCO\N=C(\C(Cc1ccc(Cl)cc1)n2ccnc2)/c3ccccc3

>  <PubMed ID>
7932586

$$$$

  Marvin  08031817322D          

 30 32  0  0  0  0            999 V2000
   -3.2926   -3.7710    0.0000 O   0  0  0  0  0  0  0  0  0  0  0  0
   -2.5781   -4.1835    0.0000 C   0  0  0  0  0  0  0  0  0  0  0  0
   -2.5781   -5.0085    0.0000 O   0  0  0  0  0  0  0  0  0  0  0  0
   -1.8637   -3.7710    0.0000 C   0  0  0  0  0  0  0  0  0  0  0  0
   -1.8637   -2.9460    0.0000 C   0  0  0  0  0  0  0  0  0  0  0  0
   -1.1492   -2.5335    0.0000 C   0  0  0  0  0  0  0  0  0  0  0  0
   -1.1492   -1.7085    0.0000 C   0  0  0  0  0  0  0  0  0  0  0  0
   -0.4347   -1.2960    0.0000 O   0  0  0  0  0  0  0  0  0  0  0  0
   -0.4347   -0.4710    0.0000 N   0  0  0  0  0  0  0  0  0  0  0  0
    0.2798   -0.0585    0.0000 C   0  0  0  0  0  0  0  0  0  0  0  0
    0.2798    0.7665    0.0000 C   0  0  0  0  0  0  0  0  0  0  0  0
   -0.4347    1.1790    0.0000 C   0  0  0  0  0  0  0  0  0  0  0  0
   -0.4347    2.0040    0.0000 C   0  0  0  0  0  0  0  0  0  0  0  0
    0.2798    2.4165    0.0000 C   0  0  0  0  0  0  0  0  0  0  0  0
    0.2798    3.2415    0.0000 C   0  0  0  0  0  0  0  0  0  0  0  0
   -0.4347    3.6540    0.0000 C   0  0  0  0  0  0  0  0  0  0  0  0
   -0.4347    4.4790    0.0000 F   0  0  0  0  0  0  0  0  0  0  0  0
   -1.1492    3.2415    0.0000 C   0  0  0  0  0  0  0  0  0  0  0  0
   -1.1492    2.4165    0.0000 C   0  0  0  0  0  0  0  0  0  0  0  0
    0.9942    1.1790    0.0000 N   0  0  0  0  0  0  0  0  0  0  0  0
    1.7479    0.8435    0.0000 C   0  0  0  0  0  0  0  0  0  0  0  0
    2.2999    1.4566    0.0000 C   0  0  0  0  0  0  0  0  0  0  0  0
    1.8874    2.1710    0.0000 N   0  0  0  0  0  0  0  0  0  0  0  0
    1.0805    1.9995    0.0000 C   0  0  0  0  0  0  0  0  0  0  0  0
    0.9942   -0.4710    0.0000 C   0  0  0  0  0  0  0  0  0  0  0  0
    0.9942   -1.2960    0.0000 C   0  0  0  0  0  0  0  0  0  0  0  0
    1.7087   -1.7085    0.0000 C   0  0  0  0  0  0  0  0  0  0  0  0
    2.4232   -1.2960    0.0000 C   0  0  0  0  0  0  0  0  0  0  0  0
    2.4232   -0.4710    0.0000 C   0  0  0  0  0  0  0  0  0  0  0  0
    1.7087   -0.0585    0.0000 C   0  0  0  0  0  0  0  0  0  0  0  0
  1  2  1  0  0  0  0
  2  3  2  0  0  0  0
  2  4  1  0  0  0  0
  4  5  1  0  0  0  0
  5  6  1  0  0  0  0
  6  7  1  0  0  0  0
  7  8  1  0  0  0  0
  8  9  1  0  0  0  0
  9 10  2  0  0  0  0
 10 11  1  0  0  0  0
 11 12  1  0  0  0  0
 12 13  1  0  0  0  0
 13 14  1  0  0  0  0
 14 15  2  0  0  0  0
 15 16  1  0  0  0  0
 16 17  1  0  0  0  0
 16 18  2  0  0  0  0
 18 19  1  0  0  0  0
 13 19  2  0  0  0  0
 11 20  1  0  0  0  0
 20 21  1  0  0  0  0
 21 22  2  0  0  0  0
 22 23  1  0  0  0  0
 23 24  2  0  0  0  0
 20 24  1  0  0  0  0
 10 25  1  0  0  0  0
 25 26  1  0  0  0  0
 26 27  2  0  0  0  0
 27 28  1  0  0  0  0
 28 29  2  0  0  0  0
 29 30  1  0  0  0  0
 25 30  2  0  0  0  0
M  END
>  <Name>
CHEMBL118188

>  <Target_Uniprot>
P21731

>  <CHEMBL Canonical SMILES>
OC(=O)CCCCO\N=C(\C(Cc1ccc(F)cc1)n2ccnc2)/c3ccccc3

>  <PubMed ID>
7932586

$$$$

  Marvin  08031817322D          

 25 27  0  0  0  0            999 V2000
    0.8874    1.6696    0.0000 C   0  0  0  0  0  0  0  0  0  0  0  0
    1.6019    1.2571    0.0000 C   0  0  0  0  0  0  0  0  0  0  0  0
    2.3163    0.8446    0.0000 C   0  0  0  0  0  0  0  0  0  0  0  0
    2.0144    1.9716    0.0000 C   0  0  0  0  0  0  0  0  0  0  0  0
    2.8394    1.9716    0.0000 C   0  0  0  0  0  0  0  0  0  0  0  0
    3.2519    1.2571    0.0000 O   0  0  0  0  0  0  0  0  0  0  0  0
    3.2519    2.6861    0.0000 O   0  0  0  0  0  0  0  0  0  0  0  0
    1.1894    0.5427    0.0000 C   0  0  0  0  0  0  0  0  0  0  0  0
    0.3644    0.5427    0.0000 C   0  0  0  0  0  0  0  0  0  0  0  0
   -0.1206    1.2101    0.0000 N   0  0  0  0  0  0  0  0  0  0  0  0
   -0.9052    0.9552    0.0000 C   0  0  0  0  0  0  0  0  0  0  0  0
   -1.6197    1.3677    0.0000 C   0  0  0  0  0  0  0  0  0  0  0  0
   -2.3341    0.9552    0.0000 C   0  0  0  0  0  0  0  0  0  0  0  0
   -2.3341    0.1302    0.0000 C   0  0  0  0  0  0  0  0  0  0  0  0
   -1.6197   -0.2823    0.0000 N   0  0  0  0  0  0  0  0  0  0  0  0
   -0.9052    0.1302    0.0000 C   0  0  0  0  0  0  0  0  0  0  0  0
   -0.1206   -0.1248    0.0000 N   0  0  0  0  0  0  0  0  0  0  0  0
    0.1344   -0.9094    0.0000 C   0  0  0  0  0  0  0  0  0  0  0  0
   -0.4177   -1.5225    0.0000 C   0  0  0  0  0  0  0  0  0  0  0  0
   -1.2246   -1.3510    0.0000 C   0  0  0  0  0  0  0  0  0  0  0  0
   -1.7767   -1.9640    0.0000 C   0  0  0  0  0  0  0  0  0  0  0  0
   -1.5217   -2.7487    0.0000 C   0  0  0  0  0  0  0  0  0  0  0  0
   -2.0738   -3.3618    0.0000 Cl  0  0  0  0  0  0  0  0  0  0  0  0
   -0.7148   -2.9202    0.0000 C   0  0  0  0  0  0  0  0  0  0  0  0
   -0.1627   -2.3071    0.0000 C   0  0  0  0  0  0  0  0  0  0  0  0
  1  2  1  0  0  0  0
  2  3  1  0  0  0  0
  2  4  1  0  0  0  0
  4  5  1  0  0  0  0
  5  6  2  0  0  0  0
  5  7  1  0  0  0  0
  2  8  1  0  0  0  0
  8  9  1  0  0  0  0
  9 10  2  0  0  0  0
 10 11  1  0  0  0  0
 11 12  1  0  0  0  0
 12 13  2  0  0  0  0
 13 14  1  0  0  0  0
 14 15  2  0  0  0  0
 15 16  1  0  0  0  0
 11 16  2  0  0  0  0
 16 17  1  0  0  0  0
  9 17  1  0  0  0  0
 17 18  1  0  0  0  0
 18 19  1  0  0  0  0
 19 20  1  0  0  0  0
 20 21  2  0  0  0  0
 21 22  1  0  0  0  0
 22 23  1  0  0  0  0
 22 24  2  0  0  0  0
 24 25  1  0  0  0  0
 19 25  2  0  0  0  0
M  END
>  <Name>
CHEMBL17990

>  <Target_Uniprot>
P21731

>  <CHEMBL Canonical SMILES>
CC(C)(CC(=O)O)Cc1nc2cccnc2n1Cc3ccc(Cl)cc3

>  <PubMed ID>
8487256

$$$$

  Marvin  08031817322D          

 53 58  0  0  0  0            999 V2000
    4.6525   -0.7813    0.0000 C   0  0  0  0  0  0  0  0  0  0  0  0
    4.4390    0.0155    0.0000 O   0  0  0  0  0  0  0  0  0  0  0  0
    5.0223    0.5989    0.0000 C   0  0  0  0  0  0  0  0  0  0  0  0
    5.8192    0.3854    0.0000 C   0  0  0  0  0  0  0  0  0  0  0  0
    6.4026    0.9687    0.0000 C   0  0  0  0  0  0  0  0  0  0  0  0
    6.1891    1.7656    0.0000 C   0  0  0  0  0  0  0  0  0  0  0  0
    5.3922    1.9792    0.0000 C   0  0  0  0  0  0  0  0  0  0  0  0
    5.1786    2.7761    0.0000 O   0  0  0  0  0  0  0  0  0  0  0  0
    5.7620    3.3594    0.0000 C   0  0  0  0  0  0  0  0  0  0  0  0
    4.8088    1.3958    0.0000 C   0  0  0  0  0  0  0  0  0  0  0  0
    4.0119    1.6093    0.0000 C   0  0  0  0  0  0  0  0  0  0  0  0
    4.7264    2.0218    0.0000 C   0  0  0  0  0  0  0  0  0  0  0  0
    4.0119    2.4343    0.0000 C   0  0  0  0  0  0  0  0  0  0  0  0
    3.5994    0.8949    0.0000 C   0  0  0  0  0  0  0  0  0  0  0  0
    4.0119    0.1804    0.0000 O   0  0  0  0  0  0  0  0  0  0  0  0
    2.7744    0.8949    0.0000 N   0  0  0  0  0  0  0  0  0  0  0  0
    2.3619    0.1804    0.0000 S   0  0  0  0  0  0  0  0  0  0  0  0
    1.6474    0.5929    0.0000 O   0  0  0  0  0  0  0  0  0  0  0  0
    3.0764   -0.2321    0.0000 O   0  0  0  0  0  0  0  0  0  0  0  0
    1.9494   -0.5341    0.0000 C   0  0  0  0  0  0  0  0  0  0  0  0
    1.1244   -0.5341    0.0000 C   0  0  0  0  0  0  0  0  0  0  0  0
    0.7119    0.1804    0.0000 C   0  0  0  0  0  0  0  0  0  0  0  0
   -0.1131    0.1804    0.0000 C   0  0  0  0  0  0  0  0  0  0  0  0
   -0.5256   -0.5341    0.0000 C   0  0  0  0  0  0  0  0  0  0  0  0
   -1.3506   -0.5341    0.0000 N   0  0  0  0  0  0  0  0  0  0  0  0
   -1.8355    0.1334    0.0000 C   0  0  0  0  0  0  0  0  0  0  0  0
   -2.6201   -0.1216    0.0000 C   0  0  0  0  0  0  0  0  0  0  0  0
   -3.3346    0.2909    0.0000 C   0  0  0  0  0  0  0  0  0  0  0  0
   -3.3346    1.1159    0.0000 O   0  0  0  0  0  0  0  0  0  0  0  0
   -2.6201    1.5284    0.0000 C   0  0  0  0  0  0  0  0  0  0  0  0
   -2.6201    2.3534    0.0000 C   0  0  0  0  0  0  0  0  0  0  0  0
   -3.4451    2.3534    0.0000 F   0  0  0  0  0  0  0  0  0  0  0  0
   -1.7951    2.3534    0.0000 F   0  0  0  0  0  0  0  0  0  0  0  0
   -2.6201    3.1784    0.0000 F   0  0  0  0  0  0  0  0  0  0  0  0
   -4.0491   -0.1216    0.0000 C   0  0  0  0  0  0  0  0  0  0  0  0
   -4.7635    0.2909    0.0000 N   0  0  0  0  0  0  0  0  0  0  0  0
   -5.4780   -0.1216    0.0000 C   0  0  0  0  0  0  0  0  0  0  0  0
   -5.4780   -0.9466    0.0000 C   0  0  0  0  0  0  0  0  0  0  0  0
   -4.7635   -1.3591    0.0000 C   0  0  0  0  0  0  0  0  0  0  0  0
   -4.0491   -0.9466    0.0000 C   0  0  0  0  0  0  0  0  0  0  0  0
   -3.3346   -1.3591    0.0000 C   0  0  0  0  0  0  0  0  0  0  0  0
   -3.3346   -2.1841    0.0000 O   0  0  0  0  0  0  0  0  0  0  0  0
   -4.0491   -2.5966    0.0000 C   0  0  0  0  0  0  0  0  0  0  0  0
   -4.0491   -3.4216    0.0000 C   0  0  0  0  0  0  0  0  0  0  0  0
   -3.2241   -3.4216    0.0000 F   0  0  0  0  0  0  0  0  0  0  0  0
   -4.8741   -3.4216    0.0000 F   0  0  0  0  0  0  0  0  0  0  0  0
   -4.0491   -4.2466    0.0000 F   0  0  0  0  0  0  0  0  0  0  0  0
   -2.6201   -0.9466    0.0000 C   0  0  0  0  0  0  0  0  0  0  0  0
   -1.8355   -1.2015    0.0000 C   0  0  0  0  0  0  0  0  0  0  0  0
   -1.5806   -1.9861    0.0000 O   0  0  0  0  0  0  0  0  0  0  0  0
   -0.1131   -1.2486    0.0000 C   0  0  0  0  0  0  0  0  0  0  0  0
   -0.5256   -1.9630    0.0000 C   0  0  0  0  0  0  0  0  0  0  0  0
    0.7119   -1.2486    0.0000 C   0  0  0  0  0  0  0  0  0  0  0  0
  1  2  1  0  0  0  0
  2  3  1  0  0  0  0
  3  4  1  0  0  0  0
  4  5  2  0  0  0  0
  5  6  1  0  0  0  0
  6  7  2  0  0  0  0
  7  8  1  0  0  0  0
  8  9  1  0  0  0  0
  7 10  1  0  0  0  0
  3 10  2  0  0  0  0
 10 11  1  0  0  0  0
 11 12  1  0  0  0  0
 12 13  1  0  0  0  0
 11 13  1  0  0  0  0
 11 14  1  0  0  0  0
 14 15  2  0  0  0  0
 14 16  1  0  0  0  0
 16 17  1  0  0  0  0
 17 18  2  0  0  0  0
 17 19  2  0  0  0  0
 17 20  1  0  0  0  0
 20 21  1  0  0  0  0
 21 22  1  0  0  0  0
 22 23  2  0  0  0  0
 23 24  1  0  0  0  0
 24 25  1  0  0  0  0
 25 26  1  0  0  0  0
 26 27  1  0  0  0  0
 27 28  1  0  0  0  0
 28 29  1  0  0  0  0
 29 30  1  0  0  0  0
 30 31  1  0  0  0  0
 31 32  1  0  0  0  0
 31 33  1  0  0  0  0
 31 34  1  0  0  0  0
 28 35  2  0  0  0  0
 35 36  1  0  0  0  0
 36 37  2  0  0  0  0
 37 38  1  0  0  0  0
 38 39  2  0  0  0  0
 39 40  1  0  0  0  0
 35 40  1  0  0  0  0
 40 41  2  0  0  0  0
 41 42  1  0  0  0  0
 42 43  1  0  0  0  0
 43 44  1  0  0  0  0
 44 45  1  0  0  0  0
 44 46  1  0  0  0  0
 44 47  1  0  0  0  0
 41 48  1  0  0  0  0
 27 48  2  0  0  0  0
 48 49  1  0  0  0  0
 25 49  1  0  0  0  0
 49 50  2  0  0  0  0
 24 51  2  0  0  0  0
 51 52  1  0  0  0  0
 51 53  1  0  0  0  0
 21 53  2  0  0  0  0
M  END
>  <Name>
CHEMBL404199

>  <Target_Uniprot>
P21731

>  <CHEMBL Canonical SMILES>
COc1cccc(OC)c1C2(CC2)C(=O)NS(=O)(=O)Cc3ccc(N4Cc5c(OCC(F)(F)F)c6ncccc6c(OCC(F)(F)F)c5C4=O)c(C)c3

>  <PubMed ID>
18291643

$$$$

  Marvin  08031817322D          

 29 32  0  0  0  0            999 V2000
   -0.2791   -0.6077    0.0000 C   0  0  0  0  0  0  0  0  0  0  0  0
   -1.1041   -0.6077    0.0000 S   0  0  0  0  0  0  0  0  0  0  0  0
   -1.9291   -0.6077    0.0000 O   0  0  0  0  0  0  0  0  0  0  0  0
   -1.5166   -1.3222    0.0000 O   0  0  0  0  0  0  0  0  0  0  0  0
   -1.1041    0.2173    0.0000 C   0  0  0  0  0  0  0  0  0  0  0  0
   -1.8186    0.6298    0.0000 C   0  0  0  0  0  0  0  0  0  0  0  0
   -1.8186    1.4548    0.0000 C   0  0  0  0  0  0  0  0  0  0  0  0
   -1.1041    1.8673    0.0000 N   0  0  0  0  0  0  0  0  0  0  0  0
   -0.3896    1.4548    0.0000 C   0  0  0  0  0  0  0  0  0  0  0  0
   -0.3896    0.6298    0.0000 C   0  0  0  0  0  0  0  0  0  0  0  0
    0.3950    0.3748    0.0000 C   0  0  0  0  0  0  0  0  0  0  0  0
    0.6499   -0.4098    0.0000 S   0  0  0  0  0  0  0  0  0  0  0  0
    0.0979   -1.0229    0.0000 C   0  0  0  0  0  0  0  0  0  0  0  0
   -0.7091   -0.8514    0.0000 C   0  0  0  0  0  0  0  0  0  0  0  0
   -1.2611   -1.4645    0.0000 C   0  0  0  0  0  0  0  0  0  0  0  0
   -1.0062   -2.2491    0.0000 C   0  0  0  0  0  0  0  0  0  0  0  0
   -1.5582   -2.8622    0.0000 Cl  0  0  0  0  0  0  0  0  0  0  0  0
   -0.1992   -2.4206    0.0000 C   0  0  0  0  0  0  0  0  0  0  0  0
    0.3528   -1.8075    0.0000 C   0  0  0  0  0  0  0  0  0  0  0  0
    0.8799    1.0423    0.0000 C   0  0  0  0  0  0  0  0  0  0  0  0
    1.7004    1.1285    0.0000 C   0  0  0  0  0  0  0  0  0  0  0  0
    2.1853    0.4611    0.0000 C   0  0  0  0  0  0  0  0  0  0  0  0
    1.8498   -0.2926    0.0000 C   0  0  0  0  0  0  0  0  0  0  0  0
    1.0293   -0.3789    0.0000 O   0  0  0  0  0  0  0  0  0  0  0  0
    2.3347   -0.9601    0.0000 O   0  0  0  0  0  0  0  0  0  0  0  0
    2.0359    1.8822    0.0000 C   0  0  0  0  0  0  0  0  0  0  0  0
    1.5510    2.5496    0.0000 C   0  0  0  0  0  0  0  0  0  0  0  0
    0.7305    2.4634    0.0000 C   0  0  0  0  0  0  0  0  0  0  0  0
    0.3950    1.7097    0.0000 N   0  0  0  0  0  0  0  0  0  0  0  0
  1  2  1  0  0  0  0
  2  3  2  0  0  0  0
  2  4  2  0  0  0  0
  2  5  1  0  0  0  0
  5  6  1  0  0  0  0
  6  7  2  0  0  0  0
  7  8  1  0  0  0  0
  8  9  2  0  0  0  0
  9 10  1  0  0  0  0
  5 10  2  0  0  0  0
 10 11  1  0  0  0  0
 11 12  1  0  0  0  0
 12 13  1  0  0  0  0
 13 14  1  0  0  0  0
 14 15  2  0  0  0  0
 15 16  1  0  0  0  0
 16 17  1  0  0  0  0
 16 18  2  0  0  0  0
 18 19  1  0  0  0  0
 13 19  2  0  0  0  0
 11 20  2  0  0  0  0
 20 21  1  0  0  0  0
 21 22  1  0  0  0  0
 22 23  1  0  0  0  0
 23 24  2  0  0  0  0
 23 25  1  0  0  0  0
 21 26  1  0  0  0  0
 26 27  1  0  0  0  0
 27 28  1  0  0  0  0
 28 29  1  0  0  0  0
  9 29  1  0  0  0  0
 20 29  1  0  0  0  0
M  END
>  <Name>
CHEMBL484525

>  <Target_Uniprot>
P21731

>  <CHEMBL Canonical SMILES>
CS(=O)(=O)c1ccnc2c1c(Sc3ccc(Cl)cc3)c4C(CC(=O)O)CCCn24

>  <PubMed ID>
19307115

$$$$

  Marvin  08031817322D          

 28 30  0  0  0  0            999 V2000
    0.2583   -5.1684    0.0000 O   0  0  0  0  0  0  0  0  0  0  0  0
   -0.3695   -4.6327    0.0000 C   0  0  0  0  0  0  0  0  0  0  0  0
   -1.1919   -4.7037    0.0000 O   0  0  0  0  0  0  0  0  0  0  0  0
   -0.1009   -3.8522    0.0000 C   0  0  0  0  0  0  0  0  0  0  0  0
    0.6715   -3.5613    0.0000 C   0  0  0  0  0  0  0  0  0  0  0  0
    1.0162   -2.8117    0.0000 C   0  0  0  0  0  0  0  0  0  0  0  0
    1.8066   -2.5883    0.0000 C   0  0  0  0  0  0  0  0  0  0  0  0
    2.0380   -1.8111    0.0000 C   0  0  0  0  0  0  0  0  0  0  0  0
    1.5308   -1.1840    0.0000 C   0  0  0  0  0  0  0  0  0  0  0  0
    1.7495   -0.3988    0.0000 C   0  0  0  0  0  0  0  0  0  0  0  0
    2.5771   -0.0655    0.0000 C   0  0  0  0  0  0  0  0  0  0  0  0
    3.1929    0.6333    0.0000 C   0  0  0  0  0  0  0  0  0  0  0  0
    2.6634    1.3439    0.0000 C   0  0  0  0  0  0  0  0  0  0  0  0
    1.8154    0.9543    0.0000 C   0  0  0  0  0  0  0  0  0  0  0  0
    2.4207    0.6142    0.0000 O   0  0  0  0  0  0  0  0  0  0  0  0
    1.2583    0.2547    0.0000 C   0  0  0  0  0  0  0  0  0  0  0  0
    0.4398    0.3230    0.0000 C   0  0  0  0  0  0  0  0  0  0  0  0
    0.0786    1.0512    0.0000 N   0  0  0  0  0  0  0  0  0  0  0  0
   -0.7354    1.0242    0.0000 N   0  0  0  0  0  0  0  0  0  0  0  0
   -1.1551    1.7209    0.0000 C   0  0  0  0  0  0  0  0  0  0  0  0
   -0.7629    2.4374    0.0000 O   0  0  0  0  0  0  0  0  0  0  0  0
   -1.9722    1.7148    0.0000 N   0  0  0  0  0  0  0  0  0  0  0  0
   -2.4582    2.3953    0.0000 C   0  0  0  0  0  0  0  0  0  0  0  0
   -2.0477    3.1106    0.0000 C   0  0  0  0  0  0  0  0  0  0  0  0
   -2.4612    3.8315    0.0000 C   0  0  0  0  0  0  0  0  0  0  0  0
   -3.2824    3.8368    0.0000 C   0  0  0  0  0  0  0  0  0  0  0  0
   -3.6952    3.1270    0.0000 C   0  0  0  0  0  0  0  0  0  0  0  0
   -3.2843    2.4045    0.0000 C   0  0  0  0  0  0  0  0  0  0  0  0
  1  2  1  0  0  0  0
  2  3  2  0  0  0  0
  2  4  1  0  0  0  0
  4  5  1  0  0  0  0
  5  6  1  0  0  0  0
  6  7  1  0  0  0  0
  7  8  2  0  0  0  0
  8  9  1  0  0  0  0
  9 10  1  0  0  0  0
 10 11  1  0  0  0  0
 11 12  1  0  0  0  0
 12 13  1  0  0  0  0
 13 14  1  0  0  0  0
 14 15  1  0  0  0  0
 11 15  1  0  0  0  0
 14 16  1  0  0  0  0
 10 16  1  0  0  0  0
 16 17  1  0  0  0  0
 17 18  2  0  0  0  0
 18 19  1  0  0  0  0
 19 20  1  0  0  0  0
 20 21  2  0  0  0  0
 20 22  1  0  0  0  0
 22 23  1  0  0  0  0
 23 24  1  0  0  0  0
 24 25  2  0  0  0  0
 25 26  1  0  0  0  0
 26 27  2  0  0  0  0
 27 28  1  0  0  0  0
 23 28  2  0  0  0  0
M  END
>  <Name>
CHEMBL318426

>  <Target_Uniprot>
P21731

>  <CHEMBL Canonical SMILES>
OC(=O)CCC\C=C/CC1C2CCC(O2)C1\C=N\NC(=O)Nc3ccccc3

>  <PubMed ID>
1910091

$$$$

  Marvin  08031817322D          

 29 31  0  0  0  0            999 V2000
    1.2261    1.9914    0.0000 C   0  0  0  0  0  0  0  0  0  0  0  0
    1.9405    1.5789    0.0000 C   0  0  0  0  0  0  0  0  0  0  0  0
    2.6550    1.1664    0.0000 C   0  0  0  0  0  0  0  0  0  0  0  0
    2.3530    2.2934    0.0000 C   0  0  0  0  0  0  0  0  0  0  0  0
    3.1780    2.2934    0.0000 C   0  0  0  0  0  0  0  0  0  0  0  0
    3.5905    1.5789    0.0000 O   0  0  0  0  0  0  0  0  0  0  0  0
    3.5905    3.0078    0.0000 O   0  0  0  0  0  0  0  0  0  0  0  0
    1.5280    0.8644    0.0000 C   0  0  0  0  0  0  0  0  0  0  0  0
    0.7030    0.8644    0.0000 C   0  0  0  0  0  0  0  0  0  0  0  0
    0.2181    1.5319    0.0000 N   0  0  0  0  0  0  0  0  0  0  0  0
   -0.5665    1.2769    0.0000 C   0  0  0  0  0  0  0  0  0  0  0  0
   -1.2810    1.6894    0.0000 C   0  0  0  0  0  0  0  0  0  0  0  0
   -1.9954    1.2769    0.0000 C   0  0  0  0  0  0  0  0  0  0  0  0
   -2.7099    1.6894    0.0000 F   0  0  0  0  0  0  0  0  0  0  0  0
   -1.9954    0.4519    0.0000 C   0  0  0  0  0  0  0  0  0  0  0  0
   -1.2810    0.0394    0.0000 C   0  0  0  0  0  0  0  0  0  0  0  0
   -0.5665    0.4519    0.0000 C   0  0  0  0  0  0  0  0  0  0  0  0
    0.2181    0.1970    0.0000 N   0  0  0  0  0  0  0  0  0  0  0  0
    0.4731   -0.5876    0.0000 C   0  0  0  0  0  0  0  0  0  0  0  0
   -0.0790   -1.2007    0.0000 C   0  0  0  0  0  0  0  0  0  0  0  0
   -0.8859   -1.0292    0.0000 C   0  0  0  0  0  0  0  0  0  0  0  0
   -1.4380   -1.6423    0.0000 C   0  0  0  0  0  0  0  0  0  0  0  0
   -1.1830   -2.4269    0.0000 C   0  0  0  0  0  0  0  0  0  0  0  0
   -0.3761   -2.5984    0.0000 C   0  0  0  0  0  0  0  0  0  0  0  0
    0.1760   -1.9854    0.0000 C   0  0  0  0  0  0  0  0  0  0  0  0
   -1.7351   -3.0400    0.0000 S   0  0  0  0  0  0  0  0  0  0  0  0
   -1.1220   -3.5920    0.0000 O   0  0  0  0  0  0  0  0  0  0  0  0
   -2.3482   -2.4880    0.0000 O   0  0  0  0  0  0  0  0  0  0  0  0
   -2.2871   -3.6531    0.0000 C   0  0  0  0  0  0  0  0  0  0  0  0
  1  2  1  0  0  0  0
  2  3  1  0  0  0  0
  2  4  1  0  0  0  0
  4  5  1  0  0  0  0
  5  6  2  0  0  0  0
  5  7  1  0  0  0  0
  2  8  1  0  0  0  0
  8  9  1  0  0  0  0
  9 10  2  0  0  0  0
 10 11  1  0  0  0  0
 11 12  1  0  0  0  0
 12 13  2  0  0  0  0
 13 14  1  0  0  0  0
 13 15  1  0  0  0  0
 15 16  2  0  0  0  0
 16 17  1  0  0  0  0
 11 17  2  0  0  0  0
 17 18  1  0  0  0  0
  9 18  1  0  0  0  0
 18 19  1  0  0  0  0
 19 20  1  0  0  0  0
 20 21  1  0  0  0  0
 21 22  2  0  0  0  0
 22 23  1  0  0  0  0
 23 24  2  0  0  0  0
 24 25  1  0  0  0  0
 20 25  2  0  0  0  0
 23 26  1  0  0  0  0
 26 27  2  0  0  0  0
 26 28  2  0  0  0  0
 26 29  1  0  0  0  0
M  END
>  <Name>
CHEMBL418000

>  <Target_Uniprot>
P21731

>  <CHEMBL Canonical SMILES>
CC(C)(CC(=O)O)Cc1nc2cc(F)ccc2n1Cc3ccc(cc3)S(=O)(=O)C

>  <PubMed ID>
8487256

$$$$

  Marvin  08031817322D          

 25 26  0  0  1  0            999 V2000
    2.3240   -5.0294    0.0000 C   0  0  0  0  0  0  0  0  0  0  0  0
    1.7933   -4.3930    0.0000 C   0  0  0  0  0  0  0  0  0  0  0  0
    1.9075   -3.5723    0.0000 C   0  0  0  0  0  0  0  0  0  0  0  0
    1.4450   -2.8849    0.0000 C   0  0  0  0  0  0  0  0  0  0  0  0
    1.5973   -2.0707    0.0000 C   0  0  0  0  0  0  0  0  0  0  0  0
    1.0020   -1.4995    0.0000 C   0  0  2  0  0  0  0  0  0  0  0  0
    0.2006   -1.6899    0.0000 O   0  0  0  0  0  0  0  0  0  0  0  0
    1.3066   -0.7455    0.0000 C   0  0  0  0  0  0  0  0  0  0  0  0
    0.8516   -0.0744    0.0000 C   0  0  0  0  0  0  0  0  0  0  0  0
    1.0610    0.7168    0.0000 C   0  0  1  0  0  0  0  0  0  0  0  0
    1.8944    1.0511    0.0000 C   0  0  0  0  0  0  0  0  0  0  0  0
    2.5142    1.7550    0.0000 C   0  0  0  0  0  0  0  0  0  0  0  0
    1.9824    2.4682    0.0000 O   0  0  0  0  0  0  0  0  0  0  0  0
    1.1320    2.0749    0.0000 C   0  0  0  0  0  0  0  0  0  0  0  0
    1.7407    1.7304    0.0000 C   0  0  0  0  0  0  0  0  0  0  0  0
    0.5717    1.3733    0.0000 C   0  0  2  0  0  0  0  0  0  0  0  0
   -0.2499    1.3737    0.0000 C   0  0  0  0  0  0  0  0  0  0  0  0
   -0.6665    2.0689    0.0000 C   0  0  0  0  0  0  0  0  0  0  0  0
   -1.4817    2.0824    0.0000 C   0  0  0  0  0  0  0  0  0  0  0  0
   -1.9368    1.3944    0.0000 C   0  0  0  0  0  0  0  0  0  0  0  0
   -2.7597    1.3004    0.0000 C   0  0  0  0  0  0  0  0  0  0  0  0
   -3.2762    0.6523    0.0000 C   0  0  0  0  0  0  0  0  0  0  0  0
   -4.1046    0.6385    0.0000 C   0  0  0  0  0  0  0  0  0  0  0  0
   -4.4212    1.4042    0.0000 O   0  0  0  0  0  0  0  0  0  0  0  0
   -4.4275   -0.1246    0.0000 O   0  0  0  0  0  0  0  0  0  0  0  0
  1  2  1  0  0  0  0
  2  3  1  0  0  0  0
  3  4  1  0  0  0  0
  4  5  1  0  0  0  0
  5  6  1  0  0  0  0
  6  7  1  6  0  0  0
  6  8  1  0  0  0  0
  8  9  2  0  0  0  0
 10  9  1  6  0  0  0
 10 11  1  0  0  0  0
 11 12  1  0  0  0  0
 12 13  1  0  0  0  0
 13 14  1  0  0  0  0
 14 15  1  0  0  0  0
 11 15  1  0  0  0  0
 14 16  1  0  0  0  0
 10 16  1  0  0  0  0
 16 17  1  1  0  0  0
 17 18  1  0  0  0  0
 18 19  2  0  0  0  0
 19 20  1  0  0  0  0
 20 21  1  0  0  0  0
 21 22  1  0  0  0  0
 22 23  1  0  0  0  0
 23 24  2  0  0  0  0
 23 25  1  0  0  0  0
M  END
>  <Name>
CHEMBL149724

>  <Target_Uniprot>
P21731

>  <CHEMBL Canonical SMILES>
CCCCC[C@H](O)\C=C\[C@H]1C2COC(C2)[C@@H]1C\C=C/CCCC(=O)O

>  <PubMed ID>
18983139

$$$$

  Marvin  08031817322D          

 33 35  0  0  0  0            999 V2000
   -0.9274   -3.3260    0.0000 C   0  0  0  0  0  0  0  0  0  0  0  0
   -0.6724   -2.5414    0.0000 C   0  0  0  0  0  0  0  0  0  0  0  0
   -1.2245   -1.9283    0.0000 C   0  0  0  0  0  0  0  0  0  0  0  0
   -2.0314   -2.0998    0.0000 C   0  0  0  0  0  0  0  0  0  0  0  0
   -0.9695   -1.1437    0.0000 C   0  0  0  0  0  0  0  0  0  0  0  0
   -0.1849   -0.8887    0.0000 O   0  0  0  0  0  0  0  0  0  0  0  0
   -0.1849   -0.0637    0.0000 C   0  0  0  0  0  0  0  0  0  0  0  0
   -0.9695    0.1912    0.0000 C   0  0  0  0  0  0  0  0  0  0  0  0
   -1.4544   -0.4762    0.0000 N   0  0  0  0  0  0  0  0  0  0  0  0
   -1.2245    0.9758    0.0000 C   0  0  0  0  0  0  0  0  0  0  0  0
   -2.0314    1.1473    0.0000 O   0  0  0  0  0  0  0  0  0  0  0  0
   -0.6724    1.5889    0.0000 N   0  0  0  0  0  0  0  0  0  0  0  0
   -0.9274    2.3735    0.0000 C   0  0  0  0  0  0  0  0  0  0  0  0
   -0.3753    2.9866    0.0000 C   0  0  0  0  0  0  0  0  0  0  0  0
   -0.6303    3.7712    0.0000 C   0  0  0  0  0  0  0  0  0  0  0  0
   -0.0782    4.3843    0.0000 C   0  0  0  0  0  0  0  0  0  0  0  0
   -0.3332    5.1690    0.0000 C   0  0  0  0  0  0  0  0  0  0  0  0
   -1.1401    5.3405    0.0000 C   0  0  0  0  0  0  0  0  0  0  0  0
   -1.3951    6.1251    0.0000 Cl  0  0  0  0  0  0  0  0  0  0  0  0
   -1.6922    4.7274    0.0000 C   0  0  0  0  0  0  0  0  0  0  0  0
   -1.4372    3.9428    0.0000 C   0  0  0  0  0  0  0  0  0  0  0  0
    0.1345   -2.3699    0.0000 C   0  0  0  0  0  0  0  0  0  0  0  0
    0.6866   -2.9830    0.0000 C   0  0  0  0  0  0  0  0  0  0  0  0
    0.4316   -3.7676    0.0000 C   0  0  0  0  0  0  0  0  0  0  0  0
    0.9837   -4.3807    0.0000 C   0  0  0  0  0  0  0  0  0  0  0  0
    1.7906   -4.2092    0.0000 C   0  0  0  0  0  0  0  0  0  0  0  0
    2.0456   -3.4245    0.0000 C   0  0  0  0  0  0  0  0  0  0  0  0
    1.4936   -2.8114    0.0000 C   0  0  0  0  0  0  0  0  0  0  0  0
    1.7485   -2.0268    0.0000 C   0  0  0  0  0  0  0  0  0  0  0  0
    2.5555   -1.8553    0.0000 C   0  0  0  0  0  0  0  0  0  0  0  0
    2.8104   -1.0707    0.0000 C   0  0  0  0  0  0  0  0  0  0  0  0
    2.2584   -0.4576    0.0000 O   0  0  0  0  0  0  0  0  0  0  0  0
    3.6174   -0.8991    0.0000 O   0  0  0  0  0  0  0  0  0  0  0  0
  1  2  1  0  0  0  0
  2  3  2  0  0  0  0
  3  4  1  0  0  0  0
  3  5  1  0  0  0  0
  5  6  1  0  0  0  0
  6  7  1  0  0  0  0
  7  8  2  0  0  0  0
  8  9  1  0  0  0  0
  5  9  2  0  0  0  0
  8 10  1  0  0  0  0
 10 11  2  0  0  0  0
 10 12  1  0  0  0  0
 12 13  1  0  0  0  0
 13 14  1  0  0  0  0
 14 15  1  0  0  0  0
 15 16  1  0  0  0  0
 16 17  2  0  0  0  0
 17 18  1  0  0  0  0
 18 19  1  0  0  0  0
 18 20  2  0  0  0  0
 20 21  1  0  0  0  0
 15 21  2  0  0  0  0
  2 22  1  0  0  0  0
 22 23  1  0  0  0  0
 23 24  1  0  0  0  0
 24 25  2  0  0  0  0
 25 26  1  0  0  0  0
 26 27  2  0  0  0  0
 27 28  1  0  0  0  0
 23 28  2  0  0  0  0
 28 29  1  0  0  0  0
 29 30  1  0  0  0  0
 30 31  1  0  0  0  0
 31 32  2  0  0  0  0
 31 33  1  0  0  0  0
M  END
>  <Name>
CHEMBL424587

>  <Target_Uniprot>
P21731

>  <CHEMBL Canonical SMILES>
C\C(=C(/C)\c1occ(n1)C(=O)NCCc2ccc(Cl)cc2)\Cc3ccccc3CCC(=O)O

$$$$

  Marvin  08031817322D          

 31 35  0  0  0  0            999 V2000
    2.2670    0.3220    0.0000 O   0  0  0  0  0  0  0  0  0  0  0  0
    2.2670    1.1470    0.0000 C   0  0  0  0  0  0  0  0  0  0  0  0
    2.9815    1.5595    0.0000 O   0  0  0  0  0  0  0  0  0  0  0  0
    1.5526    1.5595    0.0000 C   0  0  0  0  0  0  0  0  0  0  0  0
    1.5526    2.3845    0.0000 C   0  0  0  0  0  0  0  0  0  0  0  0
    0.8381    2.7970    0.0000 C   0  0  0  0  0  0  0  0  0  0  0  0
    0.1236    2.3845    0.0000 C   0  0  0  0  0  0  0  0  0  0  0  0
   -0.5214    2.8988    0.0000 O   0  0  0  0  0  0  0  0  0  0  0  0
   -1.3257    2.7153    0.0000 C   0  0  0  0  0  0  0  0  0  0  0  0
   -1.6837    1.9720    0.0000 C   0  0  0  0  0  0  0  0  0  0  0  0
   -2.5064    2.0336    0.0000 C   0  0  0  0  0  0  0  0  0  0  0  0
   -2.9711    1.3520    0.0000 C   0  0  0  0  0  0  0  0  0  0  0  0
   -2.6131    0.6087    0.0000 C   0  0  0  0  0  0  0  0  0  0  0  0
   -1.7904    0.5470    0.0000 C   0  0  0  0  0  0  0  0  0  0  0  0
   -1.3257    1.2287    0.0000 C   0  0  0  0  0  0  0  0  0  0  0  0
   -0.5214    1.0451    0.0000 C   0  0  0  0  0  0  0  0  0  0  0  0
   -0.3378    0.2408    0.0000 C   0  0  0  0  0  0  0  0  0  0  0  0
   -0.9426   -0.3204    0.0000 C   0  0  0  0  0  0  0  0  0  0  0  0
   -0.7590   -1.1247    0.0000 N   0  0  0  0  0  0  0  0  0  0  0  0
   -1.3018   -1.7460    0.0000 C   0  0  0  0  0  0  0  0  0  0  0  0
   -0.8787   -2.4542    0.0000 N   0  0  0  0  0  0  0  0  0  0  0  0
   -0.0743   -2.2706    0.0000 C   0  0  0  0  0  0  0  0  0  0  0  0
   -0.0004   -1.4489    0.0000 C   0  0  0  0  0  0  0  0  0  0  0  0
    0.5469   -2.8134    0.0000 C   0  0  0  0  0  0  0  0  0  0  0  0
    0.3875   -3.6229    0.0000 C   0  0  0  0  0  0  0  0  0  0  0  0
    1.0088   -4.1657    0.0000 C   0  0  0  0  0  0  0  0  0  0  0  0
    1.7895   -3.8990    0.0000 C   0  0  0  0  0  0  0  0  0  0  0  0
    1.9489   -3.0896    0.0000 C   0  0  0  0  0  0  0  0  0  0  0  0
    1.3277   -2.5468    0.0000 C   0  0  0  0  0  0  0  0  0  0  0  0
    0.1236    1.5595    0.0000 C   0  0  0  0  0  0  0  0  0  0  0  0
    0.8381    1.1470    0.0000 C   0  0  0  0  0  0  0  0  0  0  0  0
  1  2  1  0  0  0  0
  2  3  2  0  0  0  0
  2  4  1  0  0  0  0
  4  5  1  0  0  0  0
  5  6  2  0  0  0  0
  6  7  1  0  0  0  0
  7  8  1  0  0  0  0
  8  9  1  0  0  0  0
  9 10  1  0  0  0  0
 10 11  1  0  0  0  0
 11 12  2  0  0  0  0
 12 13  1  0  0  0  0
 13 14  2  0  0  0  0
 14 15  1  0  0  0  0
 10 15  2  0  0  0  0
 15 16  1  0  0  0  0
 16 17  2  0  0  0  0
 17 18  1  0  0  0  0
 18 19  1  0  0  0  0
 19 20  1  0  0  0  0
 20 21  2  0  0  0  0
 21 22  1  0  0  0  0
 22 23  2  0  0  0  0
 19 23  1  0  0  0  0
 22 24  1  0  0  0  0
 24 25  1  0  0  0  0
 25 26  2  0  0  0  0
 26 27  1  0  0  0  0
 27 28  2  0  0  0  0
 28 29  1  0  0  0  0
 24 29  2  0  0  0  0
 16 30  1  0  0  0  0
  7 30  2  0  0  0  0
 30 31  1  0  0  0  0
  4 31  2  0  0  0  0
M  END
>  <Name>
CHEMBL326393

>  <Target_Uniprot>
P21731

>  <CHEMBL Canonical SMILES>
OC(=O)c1ccc2OCc3ccccc3\C(=C/Cn4cnc(c4)c5ccccc5)\c2c1

>  <PubMed ID>
1388208

$$$$

  Marvin  08031817322D          

 39 43  0  0  0  0            999 V2000
    2.1040   -2.4388    0.0000 C   0  0  0  0  0  0  0  0  0  0  0  0
    1.3069   -2.2090    0.0000 C   0  0  0  0  0  0  0  0  0  0  0  0
    0.5337   -1.9080    0.0000 C   0  0  0  0  0  0  0  0  0  0  0  0
    1.6379   -1.4557    0.0000 C   0  0  0  0  0  0  0  0  0  0  0  0
    2.4228   -1.2163    0.0000 C   0  0  0  0  0  0  0  0  0  0  0  0
    2.9785   -1.8294    0.0000 C   0  0  0  0  0  0  0  0  0  0  0  0
    3.7872   -1.6572    0.0000 C   0  0  0  0  0  0  0  0  0  0  0  0
    4.0402   -0.8720    0.0000 C   0  0  0  0  0  0  0  0  0  0  0  0
    3.4831   -0.2596    0.0000 C   0  0  0  0  0  0  0  0  0  0  0  0
    2.6763   -0.4366    0.0000 C   0  0  0  0  0  0  0  0  0  0  0  0
    2.1818    0.1989    0.0000 C   0  0  0  0  0  0  0  0  0  0  0  0
    2.3359    0.9614    0.0000 C   0  0  0  0  0  0  0  0  0  0  0  0
    3.1997    1.1493    0.0000 C   0  0  0  0  0  0  0  0  0  0  0  0
    3.7392    1.9592    0.0000 C   0  0  0  0  0  0  0  0  0  0  0  0
    3.1836    2.6659    0.0000 C   0  0  0  0  0  0  0  0  0  0  0  0
    2.5192    2.2286    0.0000 C   0  0  0  0  0  0  0  0  0  0  0  0
    3.3445    1.7544    0.0000 O   0  0  0  0  0  0  0  0  0  0  0  0
    1.9288    1.6649    0.0000 C   0  0  0  0  0  0  0  0  0  0  0  0
    1.0548    1.6506    0.0000 C   0  0  0  0  0  0  0  0  0  0  0  0
    0.5623    2.3209    0.0000 O   0  0  0  0  0  0  0  0  0  0  0  0
   -0.2236    2.0666    0.0000 C   0  0  0  0  0  0  0  0  0  0  0  0
   -0.2226    1.2430    0.0000 C   0  0  0  0  0  0  0  0  0  0  0  0
    0.5596    0.9830    0.0000 N   0  0  0  0  0  0  0  0  0  0  0  0
   -0.8173    0.6910    0.0000 C   0  0  0  0  0  0  0  0  0  0  0  0
   -0.8150   -0.1255    0.0000 O   0  0  0  0  0  0  0  0  0  0  0  0
   -1.5611    1.0254    0.0000 N   0  0  0  0  0  0  0  0  0  0  0  0
   -2.2899    0.6517    0.0000 C   0  0  0  0  0  0  0  0  0  0  0  0
   -3.0747    0.8881    0.0000 C   0  0  0  0  0  0  0  0  0  0  0  0
   -3.7845    0.4896    0.0000 C   0  0  0  0  0  0  0  0  0  0  0  0
   -4.5464    0.7355    0.0000 C   0  0  0  0  0  0  0  0  0  0  0  0
   -5.2015    0.2846    0.0000 C   0  0  0  0  0  0  0  0  0  0  0  0
   -5.9502    0.6195    0.0000 C   0  0  0  0  0  0  0  0  0  0  0  0
   -6.6202    0.1327    0.0000 C   0  0  0  0  0  0  0  0  0  0  0  0
   -6.5312   -0.6894    0.0000 C   0  0  0  0  0  0  0  0  0  0  0  0
   -5.7745   -1.0225    0.0000 C   0  0  0  0  0  0  0  0  0  0  0  0
   -5.1081   -0.5312    0.0000 C   0  0  0  0  0  0  0  0  0  0  0  0
    1.0592   -2.9973    0.0000 C   0  0  0  0  0  0  0  0  0  0  0  0
    1.6386   -3.5875    0.0000 O   0  0  0  0  0  0  0  0  0  0  0  0
    0.2431   -3.1286    0.0000 O   0  0  0  0  0  0  0  0  0  0  0  0
  1  2  1  0  0  0  0
  2  3  1  0  0  0  0
  2  4  1  0  0  0  0
  4  5  1  0  0  0  0
  5  6  1  0  0  0  0
  6  7  2  0  0  0  0
  7  8  1  0  0  0  0
  8  9  2  0  0  0  0
  9 10  1  0  0  0  0
  5 10  2  0  0  0  0
 10 11  1  0  0  0  0
 11 12  1  0  0  0  0
 12 13  1  0  0  0  0
 13 14  1  0  0  0  0
 14 15  1  0  0  0  0
 15 16  1  0  0  0  0
 16 17  1  0  0  0  0
 13 17  1  0  0  0  0
 16 18  1  0  0  0  0
 12 18  1  0  0  0  0
 18 19  1  0  0  0  0
 19 20  1  0  0  0  0
 20 21  1  0  0  0  0
 21 22  2  0  0  0  0
 22 23  1  0  0  0  0
 19 23  2  0  0  0  0
 22 24  1  0  0  0  0
 24 25  2  0  0  0  0
 24 26  1  0  0  0  0
 26 27  1  0  0  0  0
 27 28  1  0  0  0  0
 28 29  1  0  0  0  0
 29 30  1  0  0  0  0
 30 31  1  0  0  0  0
 31 32  1  0  0  0  0
 32 33  1  0  0  0  0
 33 34  1  0  0  0  0
 34 35  1  0  0  0  0
 35 36  1  0  0  0  0
 31 36  1  0  0  0  0
  2 37  1  0  0  0  0
 37 38  2  0  0  0  0
 37 39  1  0  0  0  0
M  END
>  <Name>
CHEMBL282186

>  <Target_Uniprot>
P21731

>  <CHEMBL Canonical SMILES>
CC(C)(Cc1ccccc1CC2C3CCC(O3)C2c4occ(n4)C(=O)NCCCCC5CCCCC5)C(=O)O

>  <PubMed ID>
8496908

$$$$

  Marvin  08031817322D          

 34 36  0  0  0  0            999 V2000
    3.7615   -2.4629    0.0000 C   0  0  0  0  0  0  0  0  0  0  0  0
    3.0470   -2.0504    0.0000 O   0  0  0  0  0  0  0  0  0  0  0  0
    2.3325   -2.4629    0.0000 C   0  0  0  0  0  0  0  0  0  0  0  0
    2.3325   -3.2879    0.0000 O   0  0  0  0  0  0  0  0  0  0  0  0
    1.6181   -2.0504    0.0000 C   0  0  0  0  0  0  0  0  0  0  0  0
    0.9036   -2.4629    0.0000 C   0  0  0  0  0  0  0  0  0  0  0  0
    0.1891   -2.0504    0.0000 C   0  0  0  0  0  0  0  0  0  0  0  0
   -0.5253   -2.4629    0.0000 C   0  0  0  0  0  0  0  0  0  0  0  0
   -1.2398   -2.0504    0.0000 C   0  0  0  0  0  0  0  0  0  0  0  0
   -1.2398   -1.2254    0.0000 C   0  0  0  0  0  0  0  0  0  0  0  0
   -0.5253   -0.8129    0.0000 C   0  0  0  0  0  0  0  0  0  0  0  0
   -0.5253    0.0121    0.0000 C   0  0  0  0  0  0  0  0  0  0  0  0
   -1.2398    0.4246    0.0000 C   0  0  0  0  0  0  0  0  0  0  0  0
   -1.2398    1.2496    0.0000 C   0  0  0  0  0  0  0  0  0  0  0  0
   -0.5253    1.6621    0.0000 C   0  0  0  0  0  0  0  0  0  0  0  0
   -0.5253    2.4871    0.0000 N   0  0  0  0  0  0  0  0  0  0  0  0
    0.1891    2.8996    0.0000 S   0  0  0  0  0  0  0  0  0  0  0  0
   -0.2234    3.6141    0.0000 O   0  0  0  0  0  0  0  0  0  0  0  0
    0.6016    2.1852    0.0000 O   0  0  0  0  0  0  0  0  0  0  0  0
    0.9036    3.3121    0.0000 C   0  0  0  0  0  0  0  0  0  0  0  0
    1.6181    2.8996    0.0000 C   0  0  0  0  0  0  0  0  0  0  0  0
    2.3325    3.3121    0.0000 C   0  0  0  0  0  0  0  0  0  0  0  0
    2.3325    4.1371    0.0000 C   0  0  0  0  0  0  0  0  0  0  0  0
    3.0470    4.5496    0.0000 Cl  0  0  0  0  0  0  0  0  0  0  0  0
    1.6181    4.5496    0.0000 C   0  0  0  0  0  0  0  0  0  0  0  0
    0.9036    4.1371    0.0000 C   0  0  0  0  0  0  0  0  0  0  0  0
   -1.9543    0.0121    0.0000 C   0  0  0  0  0  0  0  0  0  0  0  0
   -1.9543   -0.8129    0.0000 C   0  0  0  0  0  0  0  0  0  0  0  0
   -1.9543   -2.4629    0.0000 C   0  0  0  0  0  0  0  0  0  0  0  0
   -2.6688   -2.0504    0.0000 C   0  0  0  0  0  0  0  0  0  0  0  0
   -3.3832   -2.4629    0.0000 C   0  0  0  0  0  0  0  0  0  0  0  0
   -3.3832   -3.2879    0.0000 C   0  0  0  0  0  0  0  0  0  0  0  0
   -2.6688   -3.7004    0.0000 N   0  0  0  0  0  0  0  0  0  0  0  0
   -1.9543   -3.2879    0.0000 C   0  0  0  0  0  0  0  0  0  0  0  0
  1  2  1  0  0  0  0
  2  3  1  0  0  0  0
  3  4  2  0  0  0  0
  3  5  1  0  0  0  0
  5  6  1  0  0  0  0
  6  7  1  0  0  0  0
  7  8  1  0  0  0  0
  8  9  2  0  0  0  0
  9 10  1  0  0  0  0
 10 11  1  0  0  0  0
 11 12  2  0  0  0  0
 12 13  1  0  0  0  0
 13 14  1  0  0  0  0
 14 15  1  0  0  0  0
 15 16  1  0  0  0  0
 16 17  1  0  0  0  0
 17 18  2  0  0  0  0
 17 19  2  0  0  0  0
 17 20  1  0  0  0  0
 20 21  1  0  0  0  0
 21 22  2  0  0  0  0
 22 23  1  0  0  0  0
 23 24  1  0  0  0  0
 23 25  2  0  0  0  0
 25 26  1  0  0  0  0
 20 26  2  0  0  0  0
 13 27  2  0  0  0  0
 27 28  1  0  0  0  0
 10 28  2  0  0  0  0
  9 29  1  0  0  0  0
 29 30  1  0  0  0  0
 30 31  2  0  0  0  0
 31 32  1  0  0  0  0
 32 33  2  0  0  0  0
 33 34  1  0  0  0  0
 29 34  2  0  0  0  0
M  END
>  <Name>
CHEMBL126337

>  <Target_Uniprot>
P21731

>  <CHEMBL Canonical SMILES>
COC(=O)CCC\C=C(/c1ccc(CCNS(=O)(=O)c2ccc(Cl)cc2)cc1)\c3cccnc3

>  <PubMed ID>
8289199

$$$$

  Marvin  08031817322D          

 24 25  0  0  1  0            999 V2000
   -0.2503   -4.6569    0.0000 O   0  0  0  0  0  0  0  0  0  0  0  0
   -0.8023   -4.0438    0.0000 C   0  0  0  0  0  0  0  0  0  0  0  0
   -1.6093   -4.2153    0.0000 O   0  0  0  0  0  0  0  0  0  0  0  0
   -0.5474   -3.2592    0.0000 C   0  0  0  0  0  0  0  0  0  0  0  0
    0.2596   -3.0876    0.0000 C   0  0  0  0  0  0  0  0  0  0  0  0
    0.5145   -2.3030    0.0000 C   0  0  0  0  0  0  0  0  0  0  0  0
    1.3215   -2.1315    0.0000 C   0  0  0  0  0  0  0  0  0  0  0  0
    1.5764   -1.3469    0.0000 C   0  0  0  0  0  0  0  0  0  0  0  0
    1.0244   -0.7338    0.0000 C   0  0  0  0  0  0  0  0  0  0  0  0
    1.2793    0.0508    0.0000 C   0  0  1  0  0  0  0  0  0  0  0  0
    2.0640    0.3058    0.0000 C   0  0  0  0  0  0  0  0  0  0  0  0
    2.0640    1.1308    0.0000 C   0  0  0  0  0  0  0  0  0  0  0  0
    1.2793    1.3857    0.0000 C   0  0  0  0  0  0  0  0  0  0  0  0
    0.7944    0.7183    0.0000 C   0  0  1  0  0  0  0  0  0  0  0  0
   -0.0306    0.7183    0.0000 N   0  0  0  0  0  0  0  0  0  0  0  0
   -0.4431    1.4327    0.0000 S   0  0  0  0  0  0  0  0  0  0  0  0
   -1.1575    1.0202    0.0000 O   0  0  0  0  0  0  0  0  0  0  0  0
    0.2714    1.8452    0.0000 O   0  0  0  0  0  0  0  0  0  0  0  0
   -0.8556    2.1472    0.0000 C   0  0  0  0  0  0  0  0  0  0  0  0
   -0.4431    2.8617    0.0000 C   0  0  0  0  0  0  0  0  0  0  0  0
   -0.8556    3.5762    0.0000 C   0  0  0  0  0  0  0  0  0  0  0  0
   -1.6806    3.5762    0.0000 C   0  0  0  0  0  0  0  0  0  0  0  0
   -2.0931    2.8617    0.0000 C   0  0  0  0  0  0  0  0  0  0  0  0
   -1.6806    2.1472    0.0000 C   0  0  0  0  0  0  0  0  0  0  0  0
  1  2  1  0  0  0  0
  2  3  2  0  0  0  0
  2  4  1  0  0  0  0
  4  5  1  0  0  0  0
  5  6  1  0  0  0  0
  6  7  1  0  0  0  0
  7  8  2  0  0  0  0
  8  9  1  0  0  0  0
 10  9  1  6  0  0  0
 10 11  1  0  0  0  0
 11 12  1  0  0  0  0
 12 13  1  0  0  0  0
 13 14  1  0  0  0  0
 10 14  1  0  0  0  0
 14 15  1  6  0  0  0
 15 16  1  0  0  0  0
 16 17  2  0  0  0  0
 16 18  2  0  0  0  0
 16 19  1  0  0  0  0
 19 20  1  0  0  0  0
 20 21  2  0  0  0  0
 21 22  1  0  0  0  0
 22 23  2  0  0  0  0
 23 24  1  0  0  0  0
 19 24  2  0  0  0  0
M  END
>  <Name>
CHEMBL50507

>  <Target_Uniprot>
P21731

>  <CHEMBL Canonical SMILES>
OC(=O)CCC\C=C/C[C@H]1CCC[C@H]1NS(=O)(=O)c2ccccc2

$$$$

  Marvin  08031817322D          

 29 32  0  0  0  0            999 V2000
   -0.2791   -0.6077    0.0000 C   0  0  0  0  0  0  0  0  0  0  0  0
   -1.1041   -0.6077    0.0000 S   0  0  0  0  0  0  0  0  0  0  0  0
   -1.9291   -0.6077    0.0000 O   0  0  0  0  0  0  0  0  0  0  0  0
   -1.5166   -1.3222    0.0000 O   0  0  0  0  0  0  0  0  0  0  0  0
   -1.1041    0.2173    0.0000 C   0  0  0  0  0  0  0  0  0  0  0  0
   -1.8186    0.6298    0.0000 C   0  0  0  0  0  0  0  0  0  0  0  0
   -1.8186    1.4548    0.0000 C   0  0  0  0  0  0  0  0  0  0  0  0
   -1.1041    1.8673    0.0000 N   0  0  0  0  0  0  0  0  0  0  0  0
   -0.3896    1.4548    0.0000 C   0  0  0  0  0  0  0  0  0  0  0  0
   -0.3896    0.6298    0.0000 C   0  0  0  0  0  0  0  0  0  0  0  0
    0.3950    0.3748    0.0000 C   0  0  0  0  0  0  0  0  0  0  0  0
    0.6499   -0.4098    0.0000 S   0  0  0  0  0  0  0  0  0  0  0  0
    0.0979   -1.0229    0.0000 C   0  0  0  0  0  0  0  0  0  0  0  0
   -0.7091   -0.8514    0.0000 C   0  0  0  0  0  0  0  0  0  0  0  0
   -1.2611   -1.4645    0.0000 C   0  0  0  0  0  0  0  0  0  0  0  0
   -1.0062   -2.2491    0.0000 C   0  0  0  0  0  0  0  0  0  0  0  0
   -1.5582   -2.8622    0.0000 Br  0  0  0  0  0  0  0  0  0  0  0  0
   -0.1992   -2.4206    0.0000 C   0  0  0  0  0  0  0  0  0  0  0  0
    0.3528   -1.8075    0.0000 C   0  0  0  0  0  0  0  0  0  0  0  0
    0.8799    1.0423    0.0000 C   0  0  0  0  0  0  0  0  0  0  0  0
    1.7004    1.1285    0.0000 C   0  0  0  0  0  0  0  0  0  0  0  0
    2.1853    0.4611    0.0000 C   0  0  0  0  0  0  0  0  0  0  0  0
    1.8498   -0.2926    0.0000 C   0  0  0  0  0  0  0  0  0  0  0  0
    1.0293   -0.3789    0.0000 O   0  0  0  0  0  0  0  0  0  0  0  0
    2.3347   -0.9601    0.0000 O   0  0  0  0  0  0  0  0  0  0  0  0
    2.0359    1.8822    0.0000 C   0  0  0  0  0  0  0  0  0  0  0  0
    1.5510    2.5496    0.0000 C   0  0  0  0  0  0  0  0  0  0  0  0
    0.7305    2.4634    0.0000 C   0  0  0  0  0  0  0  0  0  0  0  0
    0.3950    1.7097    0.0000 N   0  0  0  0  0  0  0  0  0  0  0  0
  1  2  1  0  0  0  0
  2  3  2  0  0  0  0
  2  4  2  0  0  0  0
  2  5  1  0  0  0  0
  5  6  1  0  0  0  0
  6  7  2  0  0  0  0
  7  8  1  0  0  0  0
  8  9  2  0  0  0  0
  9 10  1  0  0  0  0
  5 10  2  0  0  0  0
 10 11  1  0  0  0  0
 11 12  1  0  0  0  0
 12 13  1  0  0  0  0
 13 14  1  0  0  0  0
 14 15  2  0  0  0  0
 15 16  1  0  0  0  0
 16 17  1  0  0  0  0
 16 18  2  0  0  0  0
 18 19  1  0  0  0  0
 13 19  2  0  0  0  0
 11 20  2  0  0  0  0
 20 21  1  0  0  0  0
 21 22  1  0  0  0  0
 22 23  1  0  0  0  0
 23 24  2  0  0  0  0
 23 25  1  0  0  0  0
 21 26  1  0  0  0  0
 26 27  1  0  0  0  0
 27 28  1  0  0  0  0
 28 29  1  0  0  0  0
  9 29  1  0  0  0  0
 20 29  1  0  0  0  0
M  END
>  <Name>
CHEMBL483939

>  <Target_Uniprot>
P21731

>  <CHEMBL Canonical SMILES>
CS(=O)(=O)c1ccnc2c1c(Sc3ccc(Br)cc3)c4C(CC(=O)O)CCCn24

>  <PubMed ID>
19307115

$$$$

  Marvin  08031817322D          

 28 30  0  0  1  0            999 V2000
    0.2605   -5.1637    0.0000 O   0  0  0  0  0  0  0  0  0  0  0  0
   -0.3674   -4.6281    0.0000 C   0  0  0  0  0  0  0  0  0  0  0  0
   -1.1897   -4.6992    0.0000 O   0  0  0  0  0  0  0  0  0  0  0  0
   -0.0987   -3.8476    0.0000 C   0  0  0  0  0  0  0  0  0  0  0  0
    0.6735   -3.5565    0.0000 C   0  0  0  0  0  0  0  0  0  0  0  0
    1.0189   -2.8073    0.0000 C   0  0  0  0  0  0  0  0  0  0  0  0
    1.8090   -2.5833    0.0000 C   0  0  0  0  0  0  0  0  0  0  0  0
    2.0397   -1.8057    0.0000 C   0  0  0  0  0  0  0  0  0  0  0  0
    1.5342   -1.1767    0.0000 C   0  0  0  0  0  0  0  0  0  0  0  0
    1.7645   -0.3937    0.0000 C   0  0  1  0  0  0  0  0  0  0  0  0
    2.5920   -0.0613    0.0000 C   0  0  1  0  0  0  0  0  0  0  0  0
    3.2064    0.6388    0.0000 C   0  0  0  0  0  0  0  0  0  0  0  0
    2.6774    1.3486    0.0000 C   0  0  0  0  0  0  0  0  0  0  0  0
    1.8310    0.9598    0.0000 C   0  0  1  0  0  0  0  0  0  0  0  0
    2.4380    0.6177    0.0000 O   0  0  0  0  0  0  0  0  0  0  0  0
    1.2760    0.2620    0.0000 C   0  0  1  0  0  0  0  0  0  0  0  0
    0.4599    0.2659    0.0000 C   0  0  0  0  0  0  0  0  0  0  0  0
   -0.0034    0.9253    0.0000 N   0  0  0  0  0  0  0  0  0  0  0  0
   -0.8034    1.0318    0.0000 N   0  0  0  0  0  0  0  0  0  0  0  0
   -1.1655    1.7579    0.0000 C   0  0  0  0  0  0  0  0  0  0  0  0
   -0.7497    2.4590    0.0000 O   0  0  0  0  0  0  0  0  0  0  0  0
   -1.9806    1.7105    0.0000 N   0  0  0  0  0  0  0  0  0  0  0  0
   -2.4565    2.4012    0.0000 C   0  0  0  0  0  0  0  0  0  0  0  0
   -2.0468    3.1170    0.0000 C   0  0  0  0  0  0  0  0  0  0  0  0
   -2.4606    3.8383    0.0000 C   0  0  0  0  0  0  0  0  0  0  0  0
   -3.2814    3.8438    0.0000 C   0  0  0  0  0  0  0  0  0  0  0  0
   -3.6940    3.1343    0.0000 C   0  0  0  0  0  0  0  0  0  0  0  0
   -3.2829    2.4115    0.0000 C   0  0  0  0  0  0  0  0  0  0  0  0
  1  2  1  0  0  0  0
  2  3  2  0  0  0  0
  2  4  1  0  0  0  0
  4  5  1  0  0  0  0
  5  6  1  0  0  0  0
  6  7  1  0  0  0  0
  7  8  2  0  0  0  0
  8  9  1  0  0  0  0
 10  9  1  6  0  0  0
 10 11  1  0  0  0  0
 11 12  1  0  0  0  0
 12 13  1  0  0  0  0
 13 14  1  0  0  0  0
 14 15  1  6  0  0  0
 11 15  1  1  0  0  0
 14 16  1  0  0  0  0
 10 16  1  0  0  0  0
 16 17  1  6  0  0  0
 17 18  1  0  0  0  0
 18 19  1  0  0  0  0
 19 20  1  0  0  0  0
 20 21  2  0  0  0  0
 20 22  1  0  0  0  0
 22 23  1  0  0  0  0
 23 24  1  0  0  0  0
 24 25  2  0  0  0  0
 25 26  1  0  0  0  0
 26 27  2  0  0  0  0
 27 28  1  0  0  0  0
 23 28  2  0  0  0  0
M  END
>  <Name>
CHEMBL2448578

>  <Target_Uniprot>
P21731

>  <CHEMBL Canonical SMILES>
OC(=O)CCC\C=C/C[C@H]1[C@H]2CC[C@@H](O2)[C@H]1CNNC(=O)Nc3ccccc3

>  <PubMed ID>
1826745

$$$$

  Marvin  08031817322D          

 35 37  0  0  0  0            999 V2000
   -1.7556   -2.2629    0.0000 C   0  0  0  0  0  0  0  0  0  0  0  0
   -1.0411   -2.6754    0.0000 C   0  0  0  0  0  0  0  0  0  0  0  0
   -0.3266   -2.2629    0.0000 N   0  0  0  0  0  0  0  0  0  0  0  0
   -0.3266   -1.4379    0.0000 C   0  0  0  0  0  0  0  0  0  0  0  0
   -1.0411   -1.0254    0.0000 C   0  0  0  0  0  0  0  0  0  0  0  0
   -1.0411   -0.2004    0.0000 C   0  0  0  0  0  0  0  0  0  0  0  0
   -0.3266    0.2121    0.0000 C   0  0  0  0  0  0  0  0  0  0  0  0
   -0.3266    1.0371    0.0000 C   0  0  0  0  0  0  0  0  0  0  0  0
   -1.0411    1.4496    0.0000 C   0  0  0  0  0  0  0  0  0  0  0  0
   -1.7556    1.0371    0.0000 C   0  0  0  0  0  0  0  0  0  0  0  0
   -1.7556    0.2121    0.0000 C   0  0  0  0  0  0  0  0  0  0  0  0
   -1.0411    2.2746    0.0000 C   0  0  0  0  0  0  0  0  0  0  0  0
   -0.3266    2.6871    0.0000 C   0  0  0  0  0  0  0  0  0  0  0  0
    0.3879    2.2746    0.0000 C   0  0  0  0  0  0  0  0  0  0  0  0
    1.1023    2.6871    0.0000 C   0  0  0  0  0  0  0  0  0  0  0  0
    1.8168    2.2746    0.0000 C   0  0  0  0  0  0  0  0  0  0  0  0
    2.5313    2.6871    0.0000 C   0  0  0  0  0  0  0  0  0  0  0  0
    2.5313    3.5121    0.0000 O   0  0  0  0  0  0  0  0  0  0  0  0
    3.2457    2.2746    0.0000 O   0  0  0  0  0  0  0  0  0  0  0  0
   -1.7556    2.6871    0.0000 C   0  0  0  0  0  0  0  0  0  0  0  0
   -1.7556    3.5121    0.0000 C   0  0  0  0  0  0  0  0  0  0  0  0
   -2.4700    3.9246    0.0000 C   0  0  0  0  0  0  0  0  0  0  0  0
   -3.1845    3.5121    0.0000 C   0  0  0  0  0  0  0  0  0  0  0  0
   -3.1845    2.6871    0.0000 N   0  0  0  0  0  0  0  0  0  0  0  0
   -2.4700    2.2746    0.0000 C   0  0  0  0  0  0  0  0  0  0  0  0
    0.3879   -2.6754    0.0000 S   0  0  0  0  0  0  0  0  0  0  0  0
    0.8004   -1.9609    0.0000 O   0  0  0  0  0  0  0  0  0  0  0  0
   -0.0246   -3.3898    0.0000 O   0  0  0  0  0  0  0  0  0  0  0  0
    1.1023   -3.0879    0.0000 C   0  0  0  0  0  0  0  0  0  0  0  0
    1.1023   -3.9129    0.0000 C   0  0  0  0  0  0  0  0  0  0  0  0
    1.8168   -4.3254    0.0000 C   0  0  0  0  0  0  0  0  0  0  0  0
    2.5313   -3.9129    0.0000 C   0  0  0  0  0  0  0  0  0  0  0  0
    3.2457   -4.3254    0.0000 Cl  0  0  0  0  0  0  0  0  0  0  0  0
    2.5313   -3.0879    0.0000 C   0  0  0  0  0  0  0  0  0  0  0  0
    1.8168   -2.6754    0.0000 C   0  0  0  0  0  0  0  0  0  0  0  0
  1  2  1  0  0  0  0
  2  3  1  0  0  0  0
  3  4  1  0  0  0  0
  4  5  1  0  0  0  0
  5  6  1  0  0  0  0
  6  7  1  0  0  0  0
  7  8  2  0  0  0  0
  8  9  1  0  0  0  0
  9 10  2  0  0  0  0
 10 11  1  0  0  0  0
  6 11  2  0  0  0  0
  9 12  1  0  0  0  0
 12 13  2  0  0  0  0
 13 14  1  0  0  0  0
 14 15  1  0  0  0  0
 15 16  1  0  0  0  0
 16 17  1  0  0  0  0
 17 18  2  0  0  0  0
 17 19  1  0  0  0  0
 12 20  1  0  0  0  0
 20 21  1  0  0  0  0
 21 22  2  0  0  0  0
 22 23  1  0  0  0  0
 23 24  2  0  0  0  0
 24 25  1  0  0  0  0
 20 25  2  0  0  0  0
  3 26  1  0  0  0  0
 26 27  2  0  0  0  0
 26 28  2  0  0  0  0
 26 29  1  0  0  0  0
 29 30  1  0  0  0  0
 30 31  2  0  0  0  0
 31 32  1  0  0  0  0
 32 33  1  0  0  0  0
 32 34  2  0  0  0  0
 34 35  1  0  0  0  0
 29 35  2  0  0  0  0
M  END
>  <Name>
CHEMBL130470

>  <Target_Uniprot>
P21731

>  <CHEMBL Canonical SMILES>
CCN(CCc1ccc(cc1)\C(=C/CCCC(=O)O)\c2cccnc2)S(=O)(=O)c3ccc(Cl)cc3

>  <PubMed ID>
8289199

$$$$

  Marvin  08031817322D          

 32 35  0  0  0  0            999 V2000
   -1.9983    0.3914    0.0000 C   0  0  0  0  0  0  0  0  0  0  0  0
   -1.3936    0.9526    0.0000 N   0  0  0  0  0  0  0  0  0  0  0  0
   -0.6052    0.7094    0.0000 C   0  0  0  0  0  0  0  0  0  0  0  0
   -0.4216   -0.0949    0.0000 C   0  0  0  0  0  0  0  0  0  0  0  0
    0.3667   -0.3381    0.0000 S   0  0  0  0  0  0  0  0  0  0  0  0
    0.5503   -1.1424    0.0000 C   0  0  0  0  0  0  0  0  0  0  0  0
   -0.0947   -1.6568    0.0000 C   0  0  0  0  0  0  0  0  0  0  0  0
   -0.8092   -1.2443    0.0000 C   0  0  0  0  0  0  0  0  0  0  0  0
   -1.5237   -1.6568    0.0000 C   0  0  0  0  0  0  0  0  0  0  0  0
   -1.5237   -2.4818    0.0000 C   0  0  0  0  0  0  0  0  0  0  0  0
   -0.8092   -2.8943    0.0000 C   0  0  0  0  0  0  0  0  0  0  0  0
   -0.0947   -2.4818    0.0000 C   0  0  0  0  0  0  0  0  0  0  0  0
    0.5503   -2.9962    0.0000 C   0  0  0  0  0  0  0  0  0  0  0  0
    1.3546   -2.8126    0.0000 O   0  0  0  0  0  0  0  0  0  0  0  0
    1.7126   -2.0693    0.0000 C   0  0  0  0  0  0  0  0  0  0  0  0
    2.5353   -2.1309    0.0000 C   0  0  0  0  0  0  0  0  0  0  0  0
    3.0000   -1.4493    0.0000 C   0  0  0  0  0  0  0  0  0  0  0  0
    2.6421   -0.7060    0.0000 C   0  0  0  0  0  0  0  0  0  0  0  0
    1.8194   -0.6443    0.0000 C   0  0  0  0  0  0  0  0  0  0  0  0
    1.3546   -1.3260    0.0000 C   0  0  0  0  0  0  0  0  0  0  0  0
    3.1068   -0.0243    0.0000 C   0  0  0  0  0  0  0  0  0  0  0  0
    2.7488    0.7190    0.0000 O   0  0  0  0  0  0  0  0  0  0  0  0
    3.9295   -0.0860    0.0000 O   0  0  0  0  0  0  0  0  0  0  0  0
   -1.5771    1.7569    0.0000 S   0  0  0  0  0  0  0  0  0  0  0  0
   -2.3814    1.5733    0.0000 O   0  0  0  0  0  0  0  0  0  0  0  0
   -0.7728    1.9405    0.0000 O   0  0  0  0  0  0  0  0  0  0  0  0
   -1.7607    2.5612    0.0000 C   0  0  0  0  0  0  0  0  0  0  0  0
   -1.1559    3.1223    0.0000 C   0  0  0  0  0  0  0  0  0  0  0  0
   -1.3395    3.9267    0.0000 C   0  0  0  0  0  0  0  0  0  0  0  0
   -2.1279    4.1698    0.0000 C   0  0  0  0  0  0  0  0  0  0  0  0
   -2.7326    3.6087    0.0000 C   0  0  0  0  0  0  0  0  0  0  0  0
   -2.5491    2.8044    0.0000 C   0  0  0  0  0  0  0  0  0  0  0  0
  1  2  1  0  0  0  0
  2  3  1  0  0  0  0
  3  4  1  0  0  0  0
  4  5  1  0  0  0  0
  5  6  1  0  0  0  0
  6  7  1  0  0  0  0
  7  8  1  0  0  0  0
  8  9  2  0  0  0  0
  9 10  1  0  0  0  0
 10 11  2  0  0  0  0
 11 12  1  0  0  0  0
  7 12  2  0  0  0  0
 12 13  1  0  0  0  0
 13 14  1  0  0  0  0
 14 15  1  0  0  0  0
 15 16  1  0  0  0  0
 16 17  2  0  0  0  0
 17 18  1  0  0  0  0
 18 19  2  0  0  0  0
 19 20  1  0  0  0  0
  6 20  1  0  0  0  0
 15 20  2  0  0  0  0
 18 21  1  0  0  0  0
 21 22  2  0  0  0  0
 21 23  1  0  0  0  0
  2 24  1  0  0  0  0
 24 25  2  0  0  0  0
 24 26  2  0  0  0  0
 24 27  1  0  0  0  0
 27 28  1  0  0  0  0
 28 29  2  0  0  0  0
 29 30  1  0  0  0  0
 30 31  2  0  0  0  0
 31 32  1  0  0  0  0
 27 32  2  0  0  0  0
M  END
>  <Name>
CHEMBL114424

>  <Target_Uniprot>
P21731

>  <CHEMBL Canonical SMILES>
CN(CCSC1c2ccccc2COc3ccc(cc13)C(=O)O)S(=O)(=O)c4ccccc4

>  <PubMed ID>
1388207

$$$$

  Marvin  08031817322D          

 33 35  0  0  0  0            999 V2000
   -2.2950   -4.9750    0.0000 C   0  0  0  0  0  0  0  0  0  0  0  0
   -2.2950   -4.1500    0.0000 C   0  0  0  0  0  0  0  0  0  0  0  0
   -1.5805   -3.7375    0.0000 C   0  0  0  0  0  0  0  0  0  0  0  0
   -1.5805   -2.9125    0.0000 C   0  0  0  0  0  0  0  0  0  0  0  0
   -2.2950   -2.5000    0.0000 C   0  0  0  0  0  0  0  0  0  0  0  0
   -3.0094   -2.9125    0.0000 C   0  0  0  0  0  0  0  0  0  0  0  0
   -3.0094   -3.7375    0.0000 C   0  0  0  0  0  0  0  0  0  0  0  0
   -2.2950   -1.6750    0.0000 S   0  0  0  0  0  0  0  0  0  0  0  0
   -3.1200   -1.6750    0.0000 O   0  0  0  0  0  0  0  0  0  0  0  0
   -1.4700   -1.6750    0.0000 O   0  0  0  0  0  0  0  0  0  0  0  0
   -2.2950   -0.8500    0.0000 N   0  0  0  0  0  0  0  0  0  0  0  0
   -1.5805   -0.4375    0.0000 C   0  0  0  0  0  0  0  0  0  0  0  0
   -1.5805    0.3875    0.0000 C   0  0  0  0  0  0  0  0  0  0  0  0
   -0.8660    0.8000    0.0000 C   0  0  0  0  0  0  0  0  0  0  0  0
   -0.1516    0.3875    0.0000 C   0  0  0  0  0  0  0  0  0  0  0  0
    0.5629    0.8000    0.0000 C   0  0  0  0  0  0  0  0  0  0  0  0
    0.5629    1.6250    0.0000 C   0  0  0  0  0  0  0  0  0  0  0  0
   -0.1516    2.0375    0.0000 C   0  0  0  0  0  0  0  0  0  0  0  0
   -0.8660    1.6250    0.0000 C   0  0  0  0  0  0  0  0  0  0  0  0
    1.2774    2.0375    0.0000 C   0  0  0  0  0  0  0  0  0  0  0  0
    1.9919    1.6250    0.0000 C   0  0  0  0  0  0  0  0  0  0  0  0
    1.9919    0.8000    0.0000 C   0  0  0  0  0  0  0  0  0  0  0  0
    2.7063    0.3875    0.0000 C   0  0  0  0  0  0  0  0  0  0  0  0
    2.7063   -0.4375    0.0000 C   0  0  0  0  0  0  0  0  0  0  0  0
    3.4208   -0.8500    0.0000 C   0  0  0  0  0  0  0  0  0  0  0  0
    4.1353   -0.4375    0.0000 O   0  0  0  0  0  0  0  0  0  0  0  0
    3.4208   -1.6750    0.0000 O   0  0  0  0  0  0  0  0  0  0  0  0
    1.2774    2.8625    0.0000 C   0  0  0  0  0  0  0  0  0  0  0  0
    1.9919    3.2750    0.0000 C   0  0  0  0  0  0  0  0  0  0  0  0
    1.9919    4.1000    0.0000 C   0  0  0  0  0  0  0  0  0  0  0  0
    1.2774    4.5125    0.0000 C   0  0  0  0  0  0  0  0  0  0  0  0
    0.5629    4.1000    0.0000 N   0  0  0  0  0  0  0  0  0  0  0  0
    0.5629    3.2750    0.0000 C   0  0  0  0  0  0  0  0  0  0  0  0
  1  2  1  0  0  0  0
  2  3  1  0  0  0  0
  3  4  2  0  0  0  0
  4  5  1  0  0  0  0
  5  6  2  0  0  0  0
  6  7  1  0  0  0  0
  2  7  2  0  0  0  0
  5  8  1  0  0  0  0
  8  9  2  0  0  0  0
  8 10  2  0  0  0  0
  8 11  1  0  0  0  0
 11 12  1  0  0  0  0
 12 13  1  0  0  0  0
 13 14  1  0  0  0  0
 14 15  1  0  0  0  0
 15 16  2  0  0  0  0
 16 17  1  0  0  0  0
 17 18  2  0  0  0  0
 18 19  1  0  0  0  0
 14 19  2  0  0  0  0
 17 20  1  0  0  0  0
 20 21  2  0  0  0  0
 21 22  1  0  0  0  0
 22 23  1  0  0  0  0
 23 24  1  0  0  0  0
 24 25  1  0  0  0  0
 25 26  2  0  0  0  0
 25 27  1  0  0  0  0
 20 28  1  0  0  0  0
 28 29  1  0  0  0  0
 29 30  2  0  0  0  0
 30 31  1  0  0  0  0
 31 32  2  0  0  0  0
 32 33  1  0  0  0  0
 28 33  2  0  0  0  0
M  END
>  <Name>
CHEMBL129734

>  <Target_Uniprot>
P21731

>  <CHEMBL Canonical SMILES>
Cc1ccc(cc1)S(=O)(=O)NCCc2ccc(cc2)\C(=C/CCCC(=O)O)\c3cccnc3

>  <PubMed ID>
8289199

$$$$

  Marvin  08031817322D          

 38 41  0  0  0  0            999 V2000
    2.1505   -5.6206    0.0000 O   0  0  0  0  0  0  0  0  0  0  0  0
    2.4055   -4.8360    0.0000 C   0  0  0  0  0  0  0  0  0  0  0  0
    3.2125   -4.6644    0.0000 O   0  0  0  0  0  0  0  0  0  0  0  0
    1.8534   -4.2229    0.0000 C   0  0  0  0  0  0  0  0  0  0  0  0
    1.0465   -4.3944    0.0000 C   0  0  0  0  0  0  0  0  0  0  0  0
    0.4944   -3.7813    0.0000 C   0  0  0  0  0  0  0  0  0  0  0  0
   -0.3125   -3.9528    0.0000 C   0  0  0  0  0  0  0  0  0  0  0  0
   -0.8646   -3.3397    0.0000 C   0  0  0  0  0  0  0  0  0  0  0  0
   -0.6096   -2.5551    0.0000 C   0  0  0  0  0  0  0  0  0  0  0  0
    0.1973   -2.3836    0.0000 C   0  0  0  0  0  0  0  0  0  0  0  0
    0.4523   -1.5990    0.0000 C   0  0  0  0  0  0  0  0  0  0  0  0
   -0.0997   -0.9859    0.0000 C   0  0  0  0  0  0  0  0  0  0  0  0
   -0.9067   -1.1574    0.0000 C   0  0  0  0  0  0  0  0  0  0  0  0
   -1.1617   -1.9420    0.0000 C   0  0  0  0  0  0  0  0  0  0  0  0
    0.1552   -0.2013    0.0000 C   0  0  0  0  0  0  0  0  0  0  0  0
    0.9398    0.0537    0.0000 O   0  0  0  0  0  0  0  0  0  0  0  0
    0.9398    0.8787    0.0000 C   0  0  0  0  0  0  0  0  0  0  0  0
    0.1552    1.1336    0.0000 C   0  0  0  0  0  0  0  0  0  0  0  0
   -0.3297    0.4662    0.0000 N   0  0  0  0  0  0  0  0  0  0  0  0
   -0.0997    1.9182    0.0000 C   0  0  0  0  0  0  0  0  0  0  0  0
   -0.9067    2.0898    0.0000 O   0  0  0  0  0  0  0  0  0  0  0  0
    0.4523    2.5313    0.0000 N   0  0  0  0  0  0  0  0  0  0  0  0
    0.1973    3.3160    0.0000 C   0  0  0  0  0  0  0  0  0  0  0  0
    0.7494    3.9291    0.0000 C   0  0  0  0  0  0  0  0  0  0  0  0
    0.4944    4.7137    0.0000 C   0  0  0  0  0  0  0  0  0  0  0  0
    1.0465    5.3268    0.0000 C   0  0  0  0  0  0  0  0  0  0  0  0
    0.7915    6.1114    0.0000 C   0  0  0  0  0  0  0  0  0  0  0  0
    1.3436    6.7245    0.0000 C   0  0  0  0  0  0  0  0  0  0  0  0
    1.0886    7.5091    0.0000 C   0  0  0  0  0  0  0  0  0  0  0  0
    0.2817    7.6806    0.0000 C   0  0  0  0  0  0  0  0  0  0  0  0
   -0.2704    7.0675    0.0000 C   0  0  0  0  0  0  0  0  0  0  0  0
   -0.0154    6.2829    0.0000 C   0  0  0  0  0  0  0  0  0  0  0  0
   -1.6715   -3.5113    0.0000 C   0  0  0  0  0  0  0  0  0  0  0  0
   -2.2236   -2.8982    0.0000 C   0  0  0  0  0  0  0  0  0  0  0  0
   -3.0305   -3.0697    0.0000 C   0  0  0  0  0  0  0  0  0  0  0  0
   -3.2855   -3.8543    0.0000 C   0  0  0  0  0  0  0  0  0  0  0  0
   -2.7334   -4.4674    0.0000 N   0  0  0  0  0  0  0  0  0  0  0  0
   -1.9265   -4.2959    0.0000 C   0  0  0  0  0  0  0  0  0  0  0  0
  1  2  1  0  0  0  0
  2  3  2  0  0  0  0
  2  4  1  0  0  0  0
  4  5  1  0  0  0  0
  5  6  1  0  0  0  0
  6  7  1  0  0  0  0
  7  8  2  0  0  0  0
  8  9  1  0  0  0  0
  9 10  1  0  0  0  0
 10 11  2  0  0  0  0
 11 12  1  0  0  0  0
 12 13  2  0  0  0  0
 13 14  1  0  0  0  0
  9 14  2  0  0  0  0
 12 15  1  0  0  0  0
 15 16  1  0  0  0  0
 16 17  1  0  0  0  0
 17 18  2  0  0  0  0
 18 19  1  0  0  0  0
 15 19  2  0  0  0  0
 18 20  1  0  0  0  0
 20 21  2  0  0  0  0
 20 22  1  0  0  0  0
 22 23  1  0  0  0  0
 23 24  1  0  0  0  0
 24 25  1  0  0  0  0
 25 26  1  0  0  0  0
 26 27  1  0  0  0  0
 27 28  1  0  0  0  0
 28 29  1  0  0  0  0
 29 30  1  0  0  0  0
 30 31  1  0  0  0  0
 31 32  1  0  0  0  0
 27 32  1  0  0  0  0
  8 33  1  0  0  0  0
 33 34  1  0  0  0  0
 34 35  2  0  0  0  0
 35 36  1  0  0  0  0
 36 37  2  0  0  0  0
 37 38  1  0  0  0  0
 33 38  2  0  0  0  0
M  END
>  <Name>
CHEMBL56722

>  <Target_Uniprot>
P21731

>  <CHEMBL Canonical SMILES>
OC(=O)CCC\C=C(/c1ccc(cc1)c2occ(n2)C(=O)NCCCCC3CCCCC3)\c4cccnc4

>  <PubMed ID>
9873463

$$$$

  Marvin  08031817322D          

 31 34  0  0  0  0            999 V2000
    2.7360    0.5056    0.0000 O   0  0  0  0  0  0  0  0  0  0  0  0
    2.7360    1.3306    0.0000 C   0  0  0  0  0  0  0  0  0  0  0  0
    3.4504    1.7431    0.0000 O   0  0  0  0  0  0  0  0  0  0  0  0
    2.0215    1.7431    0.0000 C   0  0  0  0  0  0  0  0  0  0  0  0
    2.0215    2.5681    0.0000 C   0  0  0  0  0  0  0  0  0  0  0  0
    1.3070    2.9806    0.0000 C   0  0  0  0  0  0  0  0  0  0  0  0
    0.5925    2.5681    0.0000 C   0  0  0  0  0  0  0  0  0  0  0  0
   -0.0525    3.0825    0.0000 O   0  0  0  0  0  0  0  0  0  0  0  0
   -0.8568    2.8989    0.0000 C   0  0  0  0  0  0  0  0  0  0  0  0
   -1.2147    2.1556    0.0000 C   0  0  0  0  0  0  0  0  0  0  0  0
   -2.0374    2.2172    0.0000 C   0  0  0  0  0  0  0  0  0  0  0  0
   -2.5022    1.5356    0.0000 C   0  0  0  0  0  0  0  0  0  0  0  0
   -2.1442    0.7923    0.0000 C   0  0  0  0  0  0  0  0  0  0  0  0
   -1.3215    0.7306    0.0000 C   0  0  0  0  0  0  0  0  0  0  0  0
   -0.8568    1.4123    0.0000 C   0  0  0  0  0  0  0  0  0  0  0  0
   -0.0525    1.2287    0.0000 C   0  0  0  0  0  0  0  0  0  0  0  0
    0.1311    0.4244    0.0000 S   0  0  0  0  0  0  0  0  0  0  0  0
   -0.4737   -0.1368    0.0000 C   0  0  0  0  0  0  0  0  0  0  0  0
   -0.2901   -0.9411    0.0000 C   0  0  0  0  0  0  0  0  0  0  0  0
   -0.8948   -1.5022    0.0000 N   0  0  0  0  0  0  0  0  0  0  0  0
   -0.7113   -2.3065    0.0000 S   0  0  0  0  0  0  0  0  0  0  0  0
    0.0931   -2.1230    0.0000 O   0  0  0  0  0  0  0  0  0  0  0  0
   -1.5156   -2.4901    0.0000 O   0  0  0  0  0  0  0  0  0  0  0  0
   -0.5277   -3.1109    0.0000 C   0  0  0  0  0  0  0  0  0  0  0  0
   -1.1325   -3.6720    0.0000 C   0  0  0  0  0  0  0  0  0  0  0  0
   -0.9489   -4.4763    0.0000 C   0  0  0  0  0  0  0  0  0  0  0  0
   -0.1605   -4.7195    0.0000 C   0  0  0  0  0  0  0  0  0  0  0  0
    0.4442   -4.1583    0.0000 C   0  0  0  0  0  0  0  0  0  0  0  0
    0.2607   -3.3540    0.0000 C   0  0  0  0  0  0  0  0  0  0  0  0
    0.5925    1.7431    0.0000 C   0  0  0  0  0  0  0  0  0  0  0  0
    1.3070    1.3306    0.0000 C   0  0  0  0  0  0  0  0  0  0  0  0
  1  2  1  0  0  0  0
  2  3  2  0  0  0  0
  2  4  1  0  0  0  0
  4  5  1  0  0  0  0
  5  6  2  0  0  0  0
  6  7  1  0  0  0  0
  7  8  1  0  0  0  0
  8  9  1  0  0  0  0
  9 10  1  0  0  0  0
 10 11  1  0  0  0  0
 11 12  2  0  0  0  0
 12 13  1  0  0  0  0
 13 14  2  0  0  0  0
 14 15  1  0  0  0  0
 10 15  2  0  0  0  0
 15 16  1  0  0  0  0
 16 17  1  0  0  0  0
 17 18  1  0  0  0  0
 18 19  1  0  0  0  0
 19 20  1  0  0  0  0
 20 21  1  0  0  0  0
 21 22  2  0  0  0  0
 21 23  2  0  0  0  0
 21 24  1  0  0  0  0
 24 25  1  0  0  0  0
 25 26  2  0  0  0  0
 26 27  1  0  0  0  0
 27 28  2  0  0  0  0
 28 29  1  0  0  0  0
 24 29  2  0  0  0  0
 16 30  1  0  0  0  0
  7 30  2  0  0  0  0
 30 31  1  0  0  0  0
  4 31  2  0  0  0  0
M  END
>  <Name>
CHEMBL324130

>  <Target_Uniprot>
P21731

>  <CHEMBL Canonical SMILES>
OC(=O)c1ccc2OCc3ccccc3C(SCCNS(=O)(=O)c4ccccc4)c2c1

>  <PubMed ID>
1388207

$$$$

  Marvin  08031817322D          

 25 27  0  0  0  0            999 V2000
    0.8874    1.6696    0.0000 C   0  0  0  0  0  0  0  0  0  0  0  0
    1.6019    1.2571    0.0000 C   0  0  0  0  0  0  0  0  0  0  0  0
    2.3163    0.8446    0.0000 C   0  0  0  0  0  0  0  0  0  0  0  0
    2.0144    1.9716    0.0000 C   0  0  0  0  0  0  0  0  0  0  0  0
    2.8394    1.9716    0.0000 C   0  0  0  0  0  0  0  0  0  0  0  0
    3.2519    1.2571    0.0000 O   0  0  0  0  0  0  0  0  0  0  0  0
    3.2519    2.6861    0.0000 O   0  0  0  0  0  0  0  0  0  0  0  0
    1.1894    0.5427    0.0000 C   0  0  0  0  0  0  0  0  0  0  0  0
    0.3644    0.5427    0.0000 C   0  0  0  0  0  0  0  0  0  0  0  0
   -0.1206    1.2101    0.0000 N   0  0  0  0  0  0  0  0  0  0  0  0
   -0.9052    0.9552    0.0000 C   0  0  0  0  0  0  0  0  0  0  0  0
   -1.6197    1.3677    0.0000 C   0  0  0  0  0  0  0  0  0  0  0  0
   -2.3341    0.9552    0.0000 C   0  0  0  0  0  0  0  0  0  0  0  0
   -2.3341    0.1302    0.0000 C   0  0  0  0  0  0  0  0  0  0  0  0
   -1.6197   -0.2823    0.0000 C   0  0  0  0  0  0  0  0  0  0  0  0
   -0.9052    0.1302    0.0000 C   0  0  0  0  0  0  0  0  0  0  0  0
   -0.1206   -0.1248    0.0000 N   0  0  0  0  0  0  0  0  0  0  0  0
    0.1344   -0.9094    0.0000 C   0  0  0  0  0  0  0  0  0  0  0  0
   -0.4177   -1.5225    0.0000 C   0  0  0  0  0  0  0  0  0  0  0  0
   -1.2246   -1.3510    0.0000 C   0  0  0  0  0  0  0  0  0  0  0  0
   -1.7767   -1.9640    0.0000 C   0  0  0  0  0  0  0  0  0  0  0  0
   -1.5217   -2.7487    0.0000 C   0  0  0  0  0  0  0  0  0  0  0  0
   -2.0738   -3.3618    0.0000 Cl  0  0  0  0  0  0  0  0  0  0  0  0
   -0.7148   -2.9202    0.0000 C   0  0  0  0  0  0  0  0  0  0  0  0
   -0.1627   -2.3071    0.0000 C   0  0  0  0  0  0  0  0  0  0  0  0
  1  2  1  0  0  0  0
  2  3  1  0  0  0  0
  2  4  1  0  0  0  0
  4  5  1  0  0  0  0
  5  6  2  0  0  0  0
  5  7  1  0  0  0  0
  2  8  1  0  0  0  0
  8  9  1  0  0  0  0
  9 10  2  0  0  0  0
 10 11  1  0  0  0  0
 11 12  1  0  0  0  0
 12 13  2  0  0  0  0
 13 14  1  0  0  0  0
 14 15  2  0  0  0  0
 15 16  1  0  0  0  0
 11 16  2  0  0  0  0
 16 17  1  0  0  0  0
  9 17  1  0  0  0  0
 17 18  1  0  0  0  0
 18 19  1  0  0  0  0
 19 20  1  0  0  0  0
 20 21  2  0  0  0  0
 21 22  1  0  0  0  0
 22 23  1  0  0  0  0
 22 24  2  0  0  0  0
 24 25  1  0  0  0  0
 19 25  2  0  0  0  0
M  END
>  <Name>
CHEMBL277826

>  <Target_Uniprot>
P21731

>  <CHEMBL Canonical SMILES>
CC(C)(CC(=O)O)Cc1nc2ccccc2n1Cc3ccc(Cl)cc3

>  <PubMed ID>
8487256

$$$$

  Marvin  08031817322D          

 25 26  0  0  1  0            999 V2000
   -4.8223   -2.6859    0.0000 C   0  0  0  0  0  0  0  0  0  0  0  0
   -4.0195   -2.4836    0.0000 C   0  0  0  0  0  0  0  0  0  0  0  0
   -3.6292   -1.7534    0.0000 C   0  0  0  0  0  0  0  0  0  0  0  0
   -2.8516   -1.4689    0.0000 C   0  0  0  0  0  0  0  0  0  0  0  0
   -2.4994   -0.7198    0.0000 C   0  0  0  0  0  0  0  0  0  0  0  0
   -1.6803   -0.6215    0.0000 C   0  0  2  0  0  0  0  0  0  0  0  0
   -1.1367   -1.2401    0.0000 O   0  0  0  0  0  0  0  0  0  0  0  0
   -1.5093    0.1750    0.0000 C   0  0  0  0  0  0  0  0  0  0  0  0
   -0.7310    0.4171    0.0000 C   0  0  0  0  0  0  0  0  0  0  0  0
   -0.3874    1.1644    0.0000 C   0  0  2  0  0  0  0  0  0  0  0  0
    0.3725    1.4707    0.0000 C   0  0  1  0  0  0  0  0  0  0  0  0
    1.0270    0.9770    0.0000 C   0  0  0  0  0  0  0  0  0  0  0  0
    1.7682    1.2980    0.0000 C   0  0  0  0  0  0  0  0  0  0  0  0
    2.4339    0.8291    0.0000 C   0  0  0  0  0  0  0  0  0  0  0  0
    2.3975    0.0055    0.0000 C   0  0  0  0  0  0  0  0  0  0  0  0
    3.0061   -0.5553    0.0000 C   0  0  0  0  0  0  0  0  0  0  0  0
    3.0441   -1.3823    0.0000 C   0  0  0  0  0  0  0  0  0  0  0  0
    3.7059   -1.8798    0.0000 C   0  0  0  0  0  0  0  0  0  0  0  0
    4.4111   -1.4459    0.0000 O   0  0  0  0  0  0  0  0  0  0  0  0
    3.5180   -2.6861    0.0000 O   0  0  0  0  0  0  0  0  0  0  0  0
    0.2643    2.3592    0.0000 C   0  0  0  0  0  0  0  0  0  0  0  0
   -0.2469    3.1400    0.0000 C   0  0  0  0  0  0  0  0  0  0  0  0
   -1.0746    2.8152    0.0000 O   0  0  0  0  0  0  0  0  0  0  0  0
   -0.9214    1.8879    0.0000 C   0  0  0  0  0  0  0  0  0  0  0  0
   -0.4391    2.3833    0.0000 C   0  0  0  0  0  0  0  0  0  0  0  0
  1  2  1  0  0  0  0
  2  3  1  0  0  0  0
  3  4  1  0  0  0  0
  4  5  1  0  0  0  0
  5  6  1  0  0  0  0
  6  7  1  1  0  0  0
  6  8  1  0  0  0  0
  8  9  2  0  0  0  0
 10  9  1  1  0  0  0
 10 11  1  0  0  0  0
 11 12  1  6  0  0  0
 12 13  1  0  0  0  0
 13 14  2  0  0  0  0
 14 15  1  0  0  0  0
 15 16  1  0  0  0  0
 16 17  1  0  0  0  0
 17 18  1  0  0  0  0
 18 19  2  0  0  0  0
 18 20  1  0  0  0  0
 11 21  1  0  0  0  0
 21 22  1  0  0  0  0
 22 23  1  0  0  0  0
 23 24  1  0  0  0  0
 10 24  1  0  0  0  0
 24 25  1  0  0  0  0
 21 25  1  0  0  0  0
M  END
>  <Name>
CHEMBL357834

>  <Target_Uniprot>
P21731

>  <CHEMBL Canonical SMILES>
CCCCC[C@H](O)\C=C\[C@@H]1[C@@H](C\C=C/CCCC(=O)O)C2COC1C2

>  <PubMed ID>
2769691

$$$$

  Marvin  08031817322D          

 26 28  0  0  0  0            999 V2000
   -1.7489   -3.9869    0.0000 C   0  0  0  0  0  0  0  0  0  0  0  0
   -2.0038   -3.2023    0.0000 O   0  0  0  0  0  0  0  0  0  0  0  0
   -1.4518   -2.5892    0.0000 C   0  0  0  0  0  0  0  0  0  0  0  0
   -0.6448   -2.7607    0.0000 C   0  0  0  0  0  0  0  0  0  0  0  0
   -0.0928   -2.1476    0.0000 C   0  0  0  0  0  0  0  0  0  0  0  0
   -0.3477   -1.3630    0.0000 C   0  0  0  0  0  0  0  0  0  0  0  0
    0.2043   -0.7499    0.0000 C   0  0  0  0  0  0  0  0  0  0  0  0
   -0.0506    0.0347    0.0000 N   0  0  0  0  0  0  0  0  0  0  0  0
    0.4343    0.7021    0.0000 C   0  0  0  0  0  0  0  0  0  0  0  0
    1.2593    0.7021    0.0000 C   0  0  0  0  0  0  0  0  0  0  0  0
    1.6718    1.4166    0.0000 C   0  0  0  0  0  0  0  0  0  0  0  0
    0.9573    1.8291    0.0000 C   0  0  0  0  0  0  0  0  0  0  0  0
    2.3863    1.0041    0.0000 C   0  0  0  0  0  0  0  0  0  0  0  0
    2.0843    2.1311    0.0000 C   0  0  0  0  0  0  0  0  0  0  0  0
    2.9093    2.1311    0.0000 C   0  0  0  0  0  0  0  0  0  0  0  0
    3.3218    1.4166    0.0000 O   0  0  0  0  0  0  0  0  0  0  0  0
    3.3218    2.8456    0.0000 O   0  0  0  0  0  0  0  0  0  0  0  0
   -0.0506    1.3696    0.0000 N   0  0  0  0  0  0  0  0  0  0  0  0
   -0.8352    1.1146    0.0000 C   0  0  0  0  0  0  0  0  0  0  0  0
   -1.5497    1.5271    0.0000 C   0  0  0  0  0  0  0  0  0  0  0  0
   -2.2642    1.1146    0.0000 C   0  0  0  0  0  0  0  0  0  0  0  0
   -2.2642    0.2896    0.0000 C   0  0  0  0  0  0  0  0  0  0  0  0
   -1.5497   -0.1229    0.0000 C   0  0  0  0  0  0  0  0  0  0  0  0
   -0.8352    0.2896    0.0000 C   0  0  0  0  0  0  0  0  0  0  0  0
   -1.1547   -1.1915    0.0000 C   0  0  0  0  0  0  0  0  0  0  0  0
   -1.7067   -1.8046    0.0000 C   0  0  0  0  0  0  0  0  0  0  0  0
  1  2  1  0  0  0  0
  2  3  1  0  0  0  0
  3  4  1  0  0  0  0
  4  5  2  0  0  0  0
  5  6  1  0  0  0  0
  6  7  1  0  0  0  0
  7  8  1  0  0  0  0
  8  9  1  0  0  0  0
  9 10  1  0  0  0  0
 10 11  1  0  0  0  0
 11 12  1  0  0  0  0
 11 13  1  0  0  0  0
 11 14  1  0  0  0  0
 14 15  1  0  0  0  0
 15 16  2  0  0  0  0
 15 17  1  0  0  0  0
  9 18  2  0  0  0  0
 18 19  1  0  0  0  0
 19 20  1  0  0  0  0
 20 21  2  0  0  0  0
 21 22  1  0  0  0  0
 22 23  2  0  0  0  0
 23 24  1  0  0  0  0
  8 24  1  0  0  0  0
 19 24  2  0  0  0  0
  6 25  2  0  0  0  0
 25 26  1  0  0  0  0
  3 26  2  0  0  0  0
M  END
>  <Name>
CHEMBL17899

>  <Target_Uniprot>
P21731

>  <CHEMBL Canonical SMILES>
COc1ccc(Cn2c(CC(C)(C)CC(=O)O)nc3ccccc23)cc1

>  <PubMed ID>
8487256

$$$$

  Marvin  08031817322D          

 28 29  0  0  0  0            999 V2000
   -1.1483   -1.8121    0.0000 C   0  0  0  0  0  0  0  0  0  0  0  0
   -1.1483   -0.9871    0.0000 C   0  0  0  0  0  0  0  0  0  0  0  0
   -0.4338   -0.5746    0.0000 C   0  0  0  0  0  0  0  0  0  0  0  0
    0.2807   -0.9871    0.0000 C   0  0  0  0  0  0  0  0  0  0  0  0
   -0.4338    0.2504    0.0000 C   0  0  0  0  0  0  0  0  0  0  0  0
    0.2807    0.6629    0.0000 C   0  0  0  0  0  0  0  0  0  0  0  0
    0.9952    0.2504    0.0000 C   0  0  0  0  0  0  0  0  0  0  0  0
    0.9952   -0.5746    0.0000 C   0  0  0  0  0  0  0  0  0  0  0  0
    1.7096   -0.9871    0.0000 C   0  0  0  0  0  0  0  0  0  0  0  0
    1.7096   -1.8121    0.0000 C   0  0  0  0  0  0  0  0  0  0  0  0
    2.4241   -2.2246    0.0000 C   0  0  0  0  0  0  0  0  0  0  0  0
    2.4241   -3.0496    0.0000 C   0  0  0  0  0  0  0  0  0  0  0  0
    1.7096   -3.4621    0.0000 O   0  0  0  0  0  0  0  0  0  0  0  0
    3.1386   -3.4621    0.0000 O   0  0  0  0  0  0  0  0  0  0  0  0
    0.2807    1.4879    0.0000 C   0  0  0  0  0  0  0  0  0  0  0  0
    0.9952    1.9004    0.0000 C   0  0  0  0  0  0  0  0  0  0  0  0
    0.9952    2.7254    0.0000 C   0  0  0  0  0  0  0  0  0  0  0  0
    0.2807    3.1379    0.0000 C   0  0  0  0  0  0  0  0  0  0  0  0
    0.2807    3.9629    0.0000 F   0  0  0  0  0  0  0  0  0  0  0  0
   -0.4338    2.7254    0.0000 C   0  0  0  0  0  0  0  0  0  0  0  0
   -0.4338    1.9004    0.0000 C   0  0  0  0  0  0  0  0  0  0  0  0
   -1.1483    0.6629    0.0000 C   0  0  0  0  0  0  0  0  0  0  0  0
   -1.1483    1.4879    0.0000 O   0  0  0  0  0  0  0  0  0  0  0  0
   -1.8627    0.2504    0.0000 C   0  0  0  0  0  0  0  0  0  0  0  0
   -2.5772    0.6629    0.0000 C   0  0  0  0  0  0  0  0  0  0  0  0
   -1.8627   -0.5746    0.0000 C   0  0  0  0  0  0  0  0  0  0  0  0
   -2.5772   -0.9871    0.0000 C   0  0  0  0  0  0  0  0  0  0  0  0
   -3.2917   -0.5746    0.0000 O   0  0  0  0  0  0  0  0  0  0  0  0
  1  2  1  0  0  0  0
  2  3  1  0  0  0  0
  3  4  1  0  0  0  0
  3  5  2  0  0  0  0
  5  6  1  0  0  0  0
  6  7  1  0  0  0  0
  7  8  1  0  0  0  0
  8  9  1  0  0  0  0
  9 10  1  0  0  0  0
 10 11  1  0  0  0  0
 11 12  1  0  0  0  0
 12 13  2  0  0  0  0
 12 14  1  0  0  0  0
  6 15  1  0  0  0  0
 15 16  1  0  0  0  0
 16 17  2  0  0  0  0
 17 18  1  0  0  0  0
 18 19  1  0  0  0  0
 18 20  2  0  0  0  0
 20 21  1  0  0  0  0
 15 21  2  0  0  0  0
  5 22  1  0  0  0  0
 22 23  1  0  0  0  0
 22 24  2  0  0  0  0
 24 25  1  0  0  0  0
 24 26  1  0  0  0  0
  2 26  2  0  0  0  0
 26 27  1  0  0  0  0
 27 28  2  0  0  0  0
M  END
>  <Name>
CHEMBL68512

>  <Target_Uniprot>
P21731

>  <CHEMBL Canonical SMILES>
Cc1c(C)c(C(CCCCCC(=O)O)c2ccc(F)cc2)c(O)c(C)c1C=O

>  <PubMed ID>
1535377

$$$$

  Marvin  08031817322D          

 30 32  0  0  0  0            999 V2000
   -3.2450   -3.7435    0.0000 O   0  0  0  0  0  0  0  0  0  0  0  0
   -2.5305   -4.1560    0.0000 C   0  0  0  0  0  0  0  0  0  0  0  0
   -2.5305   -4.9810    0.0000 O   0  0  0  0  0  0  0  0  0  0  0  0
   -1.8160   -3.7435    0.0000 C   0  0  0  0  0  0  0  0  0  0  0  0
   -1.8160   -2.9185    0.0000 C   0  0  0  0  0  0  0  0  0  0  0  0
   -1.1016   -2.5060    0.0000 C   0  0  0  0  0  0  0  0  0  0  0  0
   -1.1016   -1.6810    0.0000 C   0  0  0  0  0  0  0  0  0  0  0  0
   -0.3871   -1.2685    0.0000 O   0  0  0  0  0  0  0  0  0  0  0  0
   -0.3871   -0.4435    0.0000 N   0  0  0  0  0  0  0  0  0  0  0  0
    0.3274   -0.0310    0.0000 C   0  0  0  0  0  0  0  0  0  0  0  0
    0.3274    0.7940    0.0000 C   0  0  0  0  0  0  0  0  0  0  0  0
   -0.3871    1.2065    0.0000 C   0  0  0  0  0  0  0  0  0  0  0  0
   -0.3871    2.0315    0.0000 C   0  0  0  0  0  0  0  0  0  0  0  0
    0.3274    2.4440    0.0000 C   0  0  0  0  0  0  0  0  0  0  0  0
    0.3274    3.2690    0.0000 C   0  0  0  0  0  0  0  0  0  0  0  0
   -0.3871    3.6815    0.0000 C   0  0  0  0  0  0  0  0  0  0  0  0
   -1.1016    3.2690    0.0000 C   0  0  0  0  0  0  0  0  0  0  0  0
   -1.8160    3.6815    0.0000 F   0  0  0  0  0  0  0  0  0  0  0  0
   -1.1016    2.4440    0.0000 C   0  0  0  0  0  0  0  0  0  0  0  0
    1.0419    1.2065    0.0000 N   0  0  0  0  0  0  0  0  0  0  0  0
    1.7955    0.8710    0.0000 C   0  0  0  0  0  0  0  0  0  0  0  0
    2.3476    1.4841    0.0000 C   0  0  0  0  0  0  0  0  0  0  0  0
    1.9351    2.1985    0.0000 N   0  0  0  0  0  0  0  0  0  0  0  0
    1.1281    2.0270    0.0000 C   0  0  0  0  0  0  0  0  0  0  0  0
    1.0419   -0.4435    0.0000 C   0  0  0  0  0  0  0  0  0  0  0  0
    1.0419   -1.2685    0.0000 C   0  0  0  0  0  0  0  0  0  0  0  0
    1.7563   -1.6810    0.0000 C   0  0  0  0  0  0  0  0  0  0  0  0
    2.4708   -1.2685    0.0000 C   0  0  0  0  0  0  0  0  0  0  0  0
    2.4708   -0.4435    0.0000 C   0  0  0  0  0  0  0  0  0  0  0  0
    1.7563   -0.0310    0.0000 C   0  0  0  0  0  0  0  0  0  0  0  0
  1  2  1  0  0  0  0
  2  3  2  0  0  0  0
  2  4  1  0  0  0  0
  4  5  1  0  0  0  0
  5  6  1  0  0  0  0
  6  7  1  0  0  0  0
  7  8  1  0  0  0  0
  8  9  1  0  0  0  0
  9 10  2  0  0  0  0
 10 11  1  0  0  0  0
 11 12  1  0  0  0  0
 12 13  1  0  0  0  0
 13 14  1  0  0  0  0
 14 15  2  0  0  0  0
 15 16  1  0  0  0  0
 16 17  2  0  0  0  0
 17 18  1  0  0  0  0
 17 19  1  0  0  0  0
 13 19  2  0  0  0  0
 11 20  1  0  0  0  0
 20 21  1  0  0  0  0
 21 22  2  0  0  0  0
 22 23  1  0  0  0  0
 23 24  2  0  0  0  0
 20 24  1  0  0  0  0
 10 25  1  0  0  0  0
 25 26  1  0  0  0  0
 26 27  1  0  0  0  0
 27 28  1  0  0  0  0
 28 29  1  0  0  0  0
 29 30  1  0  0  0  0
 25 30  1  0  0  0  0
M  END
>  <Name>
CHEMBL333237

>  <Target_Uniprot>
P21731

>  <CHEMBL Canonical SMILES>
OC(=O)CCCCO\N=C(\C(Cc1cccc(F)c1)n2ccnc2)/C3CCCCC3

>  <PubMed ID>
7932586

$$$$

  Marvin  08031817322D          

 31 34  0  0  0  0            999 V2000
    2.7360    0.5056    0.0000 O   0  0  0  0  0  0  0  0  0  0  0  0
    2.7360    1.3306    0.0000 C   0  0  0  0  0  0  0  0  0  0  0  0
    3.4504    1.7431    0.0000 O   0  0  0  0  0  0  0  0  0  0  0  0
    2.0215    1.7431    0.0000 C   0  0  0  0  0  0  0  0  0  0  0  0
    2.0215    2.5681    0.0000 C   0  0  0  0  0  0  0  0  0  0  0  0
    1.3070    2.9806    0.0000 C   0  0  0  0  0  0  0  0  0  0  0  0
    0.5925    2.5681    0.0000 C   0  0  0  0  0  0  0  0  0  0  0  0
   -0.0525    3.0825    0.0000 C   0  0  0  0  0  0  0  0  0  0  0  0
   -0.8568    2.8989    0.0000 C   0  0  0  0  0  0  0  0  0  0  0  0
   -1.2147    2.1556    0.0000 C   0  0  0  0  0  0  0  0  0  0  0  0
   -2.0374    2.2172    0.0000 C   0  0  0  0  0  0  0  0  0  0  0  0
   -2.5022    1.5356    0.0000 C   0  0  0  0  0  0  0  0  0  0  0  0
   -2.1442    0.7923    0.0000 C   0  0  0  0  0  0  0  0  0  0  0  0
   -1.3215    0.7306    0.0000 C   0  0  0  0  0  0  0  0  0  0  0  0
   -0.8568    1.4123    0.0000 C   0  0  0  0  0  0  0  0  0  0  0  0
   -0.0525    1.2287    0.0000 C   0  0  0  0  0  0  0  0  0  0  0  0
    0.1311    0.4244    0.0000 S   0  0  0  0  0  0  0  0  0  0  0  0
   -0.4737   -0.1368    0.0000 C   0  0  0  0  0  0  0  0  0  0  0  0
   -0.2901   -0.9411    0.0000 C   0  0  0  0  0  0  0  0  0  0  0  0
   -0.8948   -1.5022    0.0000 N   0  0  0  0  0  0  0  0  0  0  0  0
   -0.7113   -2.3065    0.0000 S   0  0  0  0  0  0  0  0  0  0  0  0
    0.0931   -2.1230    0.0000 O   0  0  0  0  0  0  0  0  0  0  0  0
   -1.5156   -2.4901    0.0000 O   0  0  0  0  0  0  0  0  0  0  0  0
   -0.5277   -3.1109    0.0000 C   0  0  0  0  0  0  0  0  0  0  0  0
   -1.1325   -3.6720    0.0000 C   0  0  0  0  0  0  0  0  0  0  0  0
   -0.9489   -4.4763    0.0000 C   0  0  0  0  0  0  0  0  0  0  0  0
   -0.1605   -4.7195    0.0000 C   0  0  0  0  0  0  0  0  0  0  0  0
    0.4442   -4.1583    0.0000 C   0  0  0  0  0  0  0  0  0  0  0  0
    0.2607   -3.3540    0.0000 C   0  0  0  0  0  0  0  0  0  0  0  0
    0.5925    1.7431    0.0000 C   0  0  0  0  0  0  0  0  0  0  0  0
    1.3070    1.3306    0.0000 C   0  0  0  0  0  0  0  0  0  0  0  0
  1  2  1  0  0  0  0
  2  3  2  0  0  0  0
  2  4  1  0  0  0  0
  4  5  1  0  0  0  0
  5  6  2  0  0  0  0
  6  7  1  0  0  0  0
  7  8  1  0  0  0  0
  8  9  1  0  0  0  0
  9 10  1  0  0  0  0
 10 11  1  0  0  0  0
 11 12  2  0  0  0  0
 12 13  1  0  0  0  0
 13 14  2  0  0  0  0
 14 15  1  0  0  0  0
 10 15  2  0  0  0  0
 15 16  1  0  0  0  0
 16 17  1  0  0  0  0
 17 18  1  0  0  0  0
 18 19  1  0  0  0  0
 19 20  1  0  0  0  0
 20 21  1  0  0  0  0
 21 22  2  0  0  0  0
 21 23  2  0  0  0  0
 21 24  1  0  0  0  0
 24 25  1  0  0  0  0
 25 26  2  0  0  0  0
 26 27  1  0  0  0  0
 27 28  2  0  0  0  0
 28 29  1  0  0  0  0
 24 29  2  0  0  0  0
 16 30  1  0  0  0  0
  7 30  2  0  0  0  0
 30 31  1  0  0  0  0
  4 31  2  0  0  0  0
M  END
>  <Name>
CHEMBL114588

>  <Target_Uniprot>
P21731

>  <CHEMBL Canonical SMILES>
OC(=O)c1ccc2CCc3ccccc3C(SCCNS(=O)(=O)c4ccccc4)c2c1

>  <PubMed ID>
1388207

$$$$

  Marvin  08031817322D          

 32 36  0  0  0  0            999 V2000
   -2.1181   -0.4129    0.0000 O   0  0  0  0  0  0  0  0  0  0  0  0
   -2.0441   -1.2346    0.0000 C   0  0  0  0  0  0  0  0  0  0  0  0
   -2.7187   -1.7095    0.0000 O   0  0  0  0  0  0  0  0  0  0  0  0
   -1.2955   -1.5814    0.0000 C   0  0  0  0  0  0  0  0  0  0  0  0
   -1.2216   -2.4031    0.0000 C   0  0  0  0  0  0  0  0  0  0  0  0
   -0.4730   -2.7499    0.0000 C   0  0  0  0  0  0  0  0  0  0  0  0
    0.2016   -2.2750    0.0000 C   0  0  0  0  0  0  0  0  0  0  0  0
    0.8901   -2.7295    0.0000 O   0  0  0  0  0  0  0  0  0  0  0  0
    1.6748   -2.4745    0.0000 C   0  0  0  0  0  0  0  0  0  0  0  0
    1.9646   -1.7021    0.0000 C   0  0  0  0  0  0  0  0  0  0  0  0
    2.7895   -1.6898    0.0000 C   0  0  0  0  0  0  0  0  0  0  0  0
    3.1913   -0.9692    0.0000 C   0  0  0  0  0  0  0  0  0  0  0  0
    2.7682   -0.2610    0.0000 C   0  0  0  0  0  0  0  0  0  0  0  0
    1.9433   -0.2734    0.0000 C   0  0  0  0  0  0  0  0  0  0  0  0
    1.5415   -0.9939    0.0000 C   0  0  0  0  0  0  0  0  0  0  0  0
    0.7240   -0.8832    0.0000 C   0  0  0  0  0  0  0  0  0  0  0  0
    0.4690   -0.0986    0.0000 C   0  0  0  0  0  0  0  0  0  0  0  0
    1.0211    0.5145    0.0000 C   0  0  0  0  0  0  0  0  0  0  0  0
    0.7661    1.2992    0.0000 N   0  0  0  0  0  0  0  0  0  0  0  0
    1.2510    1.9666    0.0000 C   0  0  0  0  0  0  0  0  0  0  0  0
    0.7661    2.6340    0.0000 N   0  0  0  0  0  0  0  0  0  0  0  0
   -0.0185    2.3791    0.0000 C   0  0  0  0  0  0  0  0  0  0  0  0
   -0.7330    2.7916    0.0000 C   0  0  0  0  0  0  0  0  0  0  0  0
   -1.4474    2.3791    0.0000 C   0  0  0  0  0  0  0  0  0  0  0  0
   -1.4474    1.5541    0.0000 C   0  0  0  0  0  0  0  0  0  0  0  0
   -0.7330    1.1416    0.0000 C   0  0  0  0  0  0  0  0  0  0  0  0
   -0.0185    1.5541    0.0000 C   0  0  0  0  0  0  0  0  0  0  0  0
   -2.1619    2.7916    0.0000 C   0  0  0  0  0  0  0  0  0  0  0  0
   -2.8764    2.3791    0.0000 O   0  0  0  0  0  0  0  0  0  0  0  0
   -2.1619    3.6166    0.0000 O   0  0  0  0  0  0  0  0  0  0  0  0
    0.1277   -1.4533    0.0000 C   0  0  0  0  0  0  0  0  0  0  0  0
   -0.6209   -1.1065    0.0000 C   0  0  0  0  0  0  0  0  0  0  0  0
  1  2  1  0  0  0  0
  2  3  2  0  0  0  0
  2  4  1  0  0  0  0
  4  5  1  0  0  0  0
  5  6  2  0  0  0  0
  6  7  1  0  0  0  0
  7  8  1  0  0  0  0
  8  9  1  0  0  0  0
  9 10  1  0  0  0  0
 10 11  1  0  0  0  0
 11 12  2  0  0  0  0
 12 13  1  0  0  0  0
 13 14  2  0  0  0  0
 14 15  1  0  0  0  0
 10 15  2  0  0  0  0
 15 16  1  0  0  0  0
 16 17  2  0  0  0  0
 17 18  1  0  0  0  0
 18 19  1  0  0  0  0
 19 20  1  0  0  0  0
 20 21  2  0  0  0  0
 21 22  1  0  0  0  0
 22 23  1  0  0  0  0
 23 24  2  0  0  0  0
 24 25  1  0  0  0  0
 25 26  2  0  0  0  0
 26 27  1  0  0  0  0
 19 27  1  0  0  0  0
 22 27  2  0  0  0  0
 24 28  1  0  0  0  0
 28 29  2  0  0  0  0
 28 30  1  0  0  0  0
 16 31  1  0  0  0  0
  7 31  2  0  0  0  0
 31 32  1  0  0  0  0
  4 32  2  0  0  0  0
M  END
>  <Name>
CHEMBL116721

>  <Target_Uniprot>
P21731

>  <CHEMBL Canonical SMILES>
OC(=O)c1ccc2OCc3ccccc3\C(=C/Cn4cnc5cc(ccc45)C(=O)O)\c2c1

>  <PubMed ID>
1388208

$$$$

  Marvin  08031817322D          

 36 40  0  0  0  0            999 V2000
    2.0178   -3.4830    0.0000 O   0  0  0  0  0  0  0  0  0  0  0  0
    1.6822   -2.7293    0.0000 C   0  0  0  0  0  0  0  0  0  0  0  0
    2.0947   -2.0149    0.0000 C   0  0  0  0  0  0  0  0  0  0  0  0
    2.9152   -1.9286    0.0000 C   0  0  0  0  0  0  0  0  0  0  0  0
    3.4001   -2.5961    0.0000 C   0  0  0  0  0  0  0  0  0  0  0  0
    3.0646   -3.3497    0.0000 C   0  0  0  0  0  0  0  0  0  0  0  0
    3.5495   -4.0172    0.0000 C   0  0  0  0  0  0  0  0  0  0  0  0
    4.3700   -3.9310    0.0000 C   0  0  0  0  0  0  0  0  0  0  0  0
    4.7055   -3.1773    0.0000 C   0  0  0  0  0  0  0  0  0  0  0  0
    4.2206   -2.5098    0.0000 C   0  0  0  0  0  0  0  0  0  0  0  0
    1.5427   -1.4018    0.0000 C   0  0  0  0  0  0  0  0  0  0  0  0
    1.7142   -0.5948    0.0000 O   0  0  0  0  0  0  0  0  0  0  0  0
    0.7890   -1.7373    0.0000 C   0  0  0  0  0  0  0  0  0  0  0  0
    0.0745   -1.3248    0.0000 C   0  0  0  0  0  0  0  0  0  0  0  0
    0.0745   -0.4998    0.0000 C   0  0  0  0  0  0  0  0  0  0  0  0
    0.7890   -0.0873    0.0000 C   0  0  0  0  0  0  0  0  0  0  0  0
    0.7890    0.7377    0.0000 C   0  0  0  0  0  0  0  0  0  0  0  0
    0.0745    1.1502    0.0000 C   0  0  0  0  0  0  0  0  0  0  0  0
   -0.6399    0.7377    0.0000 C   0  0  0  0  0  0  0  0  0  0  0  0
   -1.3544    1.1502    0.0000 C   0  0  0  0  0  0  0  0  0  0  0  0
   -2.0689    0.7377    0.0000 C   0  0  0  0  0  0  0  0  0  0  0  0
   -2.0689   -0.0873    0.0000 C   0  0  0  0  0  0  0  0  0  0  0  0
   -1.3544   -0.4998    0.0000 C   0  0  0  0  0  0  0  0  0  0  0  0
   -0.6399   -0.0873    0.0000 C   0  0  0  0  0  0  0  0  0  0  0  0
   -2.7833    1.1502    0.0000 N   0  0  0  0  0  0  0  0  0  0  0  0
   -2.7833    1.9752    0.0000 S   0  0  0  0  0  0  0  0  0  0  0  0
   -3.6083    1.9752    0.0000 O   0  0  0  0  0  0  0  0  0  0  0  0
   -1.9583    1.9752    0.0000 O   0  0  0  0  0  0  0  0  0  0  0  0
   -2.7833    2.8002    0.0000 C   0  0  0  0  0  0  0  0  0  0  0  0
   -2.0689    3.2127    0.0000 C   0  0  0  0  0  0  0  0  0  0  0  0
   -2.0689    4.0377    0.0000 C   0  0  0  0  0  0  0  0  0  0  0  0
   -2.7833    4.4502    0.0000 C   0  0  0  0  0  0  0  0  0  0  0  0
   -2.7833    5.2752    0.0000 Cl  0  0  0  0  0  0  0  0  0  0  0  0
   -3.4978    4.0377    0.0000 C   0  0  0  0  0  0  0  0  0  0  0  0
   -3.4978    3.2127    0.0000 C   0  0  0  0  0  0  0  0  0  0  0  0
    0.8753   -2.5578    0.0000 C   0  0  0  0  0  0  0  0  0  0  0  0
  1  2  1  0  0  0  0
  2  3  2  0  0  0  0
  3  4  1  0  0  0  0
  4  5  1  0  0  0  0
  5  6  1  0  0  0  0
  6  7  2  0  0  0  0
  7  8  1  0  0  0  0
  8  9  2  0  0  0  0
  9 10  1  0  0  0  0
  5 10  2  0  0  0  0
  3 11  1  0  0  0  0
 11 12  2  0  0  0  0
 11 13  1  0  0  0  0
 13 14  1  0  0  0  0
 14 15  1  0  0  0  0
 15 16  1  0  0  0  0
 16 17  2  0  0  0  0
 17 18  1  0  0  0  0
 18 19  2  0  0  0  0
 19 20  1  0  0  0  0
 20 21  1  0  0  0  0
 21 22  1  0  0  0  0
 22 23  1  0  0  0  0
 23 24  1  0  0  0  0
 15 24  2  0  0  0  0
 19 24  1  0  0  0  0
 21 25  1  0  0  0  0
 25 26  1  0  0  0  0
 26 27  2  0  0  0  0
 26 28  2  0  0  0  0
 26 29  1  0  0  0  0
 29 30  1  0  0  0  0
 30 31  2  0  0  0  0
 31 32  1  0  0  0  0
 32 33  1  0  0  0  0
 32 34  2  0  0  0  0
 34 35  1  0  0  0  0
 29 35  2  0  0  0  0
 13 36  1  0  0  0  0
  2 36  1  0  0  0  0
M  END
>  <Name>
CHEMBL3354619

>  <Target_Uniprot>
P21731

>  <CHEMBL Canonical SMILES>
OC1=C(Cc2ccccc2)C(=O)C(Cc3cccc4CC(CCc34)NS(=O)(=O)c5ccc(Cl)cc5)C1

>  <PubMed ID>
25221659

$$$$

  Marvin  08031817322D          

 43 46  0  0  0  0            999 V2000
    3.1237   -3.7797    0.0000 O   0  0  0  0  0  0  0  0  0  0  0  0
    3.1237   -2.9547    0.0000 C   0  0  0  0  0  0  0  0  0  0  0  0
    3.8382   -2.5422    0.0000 O   0  0  0  0  0  0  0  0  0  0  0  0
    2.4093   -2.5422    0.0000 C   0  0  0  0  0  0  0  0  0  0  0  0
    1.6948   -2.9547    0.0000 C   0  0  0  0  0  0  0  0  0  0  0  0
    0.9803   -2.5422    0.0000 C   0  0  0  0  0  0  0  0  0  0  0  0
    0.2658   -2.9547    0.0000 C   0  0  0  0  0  0  0  0  0  0  0  0
   -0.4486   -2.5422    0.0000 C   0  0  0  0  0  0  0  0  0  0  0  0
   -0.4486   -1.7172    0.0000 C   0  0  0  0  0  0  0  0  0  0  0  0
    0.2658   -1.3047    0.0000 C   0  0  0  0  0  0  0  0  0  0  0  0
    0.2658   -0.4797    0.0000 C   0  0  0  0  0  0  0  0  0  0  0  0
   -0.4486   -0.0672    0.0000 C   0  0  0  0  0  0  0  0  0  0  0  0
   -0.4486    0.7578    0.0000 C   0  0  0  0  0  0  0  0  0  0  0  0
    0.2658    1.1703    0.0000 C   0  0  0  0  0  0  0  0  0  0  0  0
    0.2658    1.9953    0.0000 N   0  0  0  0  0  0  0  0  0  0  0  0
   -0.4486    2.4078    0.0000 C   0  0  0  0  0  0  0  0  0  0  0  0
   -1.1631    1.9953    0.0000 C   0  0  0  0  0  0  0  0  0  0  0  0
   -1.8776    2.4078    0.0000 C   0  0  0  0  0  0  0  0  0  0  0  0
   -2.5920    1.9953    0.0000 C   0  0  0  0  0  0  0  0  0  0  0  0
   -2.5920    1.1703    0.0000 C   0  0  0  0  0  0  0  0  0  0  0  0
   -1.8776    0.7578    0.0000 C   0  0  0  0  0  0  0  0  0  0  0  0
   -1.1631    1.1703    0.0000 C   0  0  0  0  0  0  0  0  0  0  0  0
   -3.3065    0.7578    0.0000 C   0  0  0  0  0  0  0  0  0  0  0  0
   -3.3065   -0.0672    0.0000 O   0  0  0  0  0  0  0  0  0  0  0  0
   -4.0210    1.1703    0.0000 O   0  0  0  0  0  0  0  0  0  0  0  0
    0.9803    2.4078    0.0000 S   0  0  0  0  0  0  0  0  0  0  0  0
    0.5678    3.1223    0.0000 O   0  0  0  0  0  0  0  0  0  0  0  0
    1.3928    1.6934    0.0000 O   0  0  0  0  0  0  0  0  0  0  0  0
    1.6948    2.8203    0.0000 C   0  0  0  0  0  0  0  0  0  0  0  0
    2.4093    2.4078    0.0000 C   0  0  0  0  0  0  0  0  0  0  0  0
    3.1237    2.8203    0.0000 C   0  0  0  0  0  0  0  0  0  0  0  0
    3.1237    3.6453    0.0000 C   0  0  0  0  0  0  0  0  0  0  0  0
    3.8382    4.0578    0.0000 Cl  0  0  0  0  0  0  0  0  0  0  0  0
    2.4093    4.0578    0.0000 C   0  0  0  0  0  0  0  0  0  0  0  0
    1.6948    3.6453    0.0000 C   0  0  0  0  0  0  0  0  0  0  0  0
   -1.1631   -0.4797    0.0000 C   0  0  0  0  0  0  0  0  0  0  0  0
   -1.1631   -1.3047    0.0000 C   0  0  0  0  0  0  0  0  0  0  0  0
   -1.1631   -2.9547    0.0000 C   0  0  0  0  0  0  0  0  0  0  0  0
   -1.8776   -2.5422    0.0000 C   0  0  0  0  0  0  0  0  0  0  0  0
   -2.5920   -2.9547    0.0000 C   0  0  0  0  0  0  0  0  0  0  0  0
   -2.5920   -3.7797    0.0000 C   0  0  0  0  0  0  0  0  0  0  0  0
   -1.8776   -4.1922    0.0000 N   0  0  0  0  0  0  0  0  0  0  0  0
   -1.1631   -3.7797    0.0000 C   0  0  0  0  0  0  0  0  0  0  0  0
  1  2  1  0  0  0  0
  2  3  2  0  0  0  0
  2  4  1  0  0  0  0
  4  5  1  0  0  0  0
  5  6  1  0  0  0  0
  6  7  1  0  0  0  0
  7  8  2  0  0  0  0
  8  9  1  0  0  0  0
  9 10  1  0  0  0  0
 10 11  2  0  0  0  0
 11 12  1  0  0  0  0
 12 13  1  0  0  0  0
 13 14  1  0  0  0  0
 14 15  1  0  0  0  0
 15 16  1  0  0  0  0
 16 17  1  0  0  0  0
 17 18  1  0  0  0  0
 18 19  2  0  0  0  0
 19 20  1  0  0  0  0
 20 21  2  0  0  0  0
 21 22  1  0  0  0  0
 17 22  2  0  0  0  0
 20 23  1  0  0  0  0
 23 24  2  0  0  0  0
 23 25  1  0  0  0  0
 15 26  1  0  0  0  0
 26 27  2  0  0  0  0
 26 28  2  0  0  0  0
 26 29  1  0  0  0  0
 29 30  1  0  0  0  0
 30 31  2  0  0  0  0
 31 32  1  0  0  0  0
 32 33  1  0  0  0  0
 32 34  2  0  0  0  0
 34 35  1  0  0  0  0
 29 35  2  0  0  0  0
 12 36  2  0  0  0  0
 36 37  1  0  0  0  0
  9 37  2  0  0  0  0
  8 38  1  0  0  0  0
 38 39  1  0  0  0  0
 39 40  2  0  0  0  0
 40 41  1  0  0  0  0
 41 42  2  0  0  0  0
 42 43  1  0  0  0  0
 38 43  2  0  0  0  0
M  END
>  <Name>
CHEMBL127008

>  <Target_Uniprot>
P21731

>  <CHEMBL Canonical SMILES>
OC(=O)CCC\C=C(/c1ccc(CCN(Cc2ccc(cc2)C(=O)O)S(=O)(=O)c3ccc(Cl)cc3)cc1)\c4cccnc4

>  <PubMed ID>
8289199

$$$$

  Marvin  08031817322D          

 36 38  0  0  0  0            999 V2000
    2.1633   -3.7469    0.0000 O   0  0  0  0  0  0  0  0  0  0  0  0
    2.1633   -2.9219    0.0000 C   0  0  0  0  0  0  0  0  0  0  0  0
    2.8777   -2.5094    0.0000 O   0  0  0  0  0  0  0  0  0  0  0  0
    1.4488   -2.5094    0.0000 C   0  0  0  0  0  0  0  0  0  0  0  0
    0.7343   -2.9219    0.0000 C   0  0  0  0  0  0  0  0  0  0  0  0
    0.0198   -2.5094    0.0000 C   0  0  0  0  0  0  0  0  0  0  0  0
   -0.6946   -2.9219    0.0000 C   0  0  0  0  0  0  0  0  0  0  0  0
   -1.4091   -2.5094    0.0000 C   0  0  0  0  0  0  0  0  0  0  0  0
   -1.4091   -1.6844    0.0000 C   0  0  0  0  0  0  0  0  0  0  0  0
   -0.6946   -1.2719    0.0000 C   0  0  0  0  0  0  0  0  0  0  0  0
   -0.6946   -0.4469    0.0000 C   0  0  0  0  0  0  0  0  0  0  0  0
   -1.4091   -0.0344    0.0000 C   0  0  0  0  0  0  0  0  0  0  0  0
   -1.4091    0.7906    0.0000 C   0  0  0  0  0  0  0  0  0  0  0  0
   -0.6946    1.2031    0.0000 C   0  0  0  0  0  0  0  0  0  0  0  0
   -0.6946    2.0281    0.0000 N   0  0  0  0  0  0  0  0  0  0  0  0
    0.0198    2.4406    0.0000 S   0  0  0  0  0  0  0  0  0  0  0  0
   -0.3927    3.1551    0.0000 O   0  0  0  0  0  0  0  0  0  0  0  0
    0.4323    1.7262    0.0000 O   0  0  0  0  0  0  0  0  0  0  0  0
    0.7343    2.8531    0.0000 C   0  0  0  0  0  0  0  0  0  0  0  0
    1.4488    2.4406    0.0000 C   0  0  0  0  0  0  0  0  0  0  0  0
    2.1633    2.8531    0.0000 C   0  0  0  0  0  0  0  0  0  0  0  0
    2.1633    3.6781    0.0000 C   0  0  0  0  0  0  0  0  0  0  0  0
    1.4488    4.0906    0.0000 C   0  0  0  0  0  0  0  0  0  0  0  0
    0.7343    3.6781    0.0000 C   0  0  0  0  0  0  0  0  0  0  0  0
    2.8777    4.0906    0.0000 C   0  0  0  0  0  0  0  0  0  0  0  0
    2.4652    4.8051    0.0000 F   0  0  0  0  0  0  0  0  0  0  0  0
    3.2902    3.3762    0.0000 F   0  0  0  0  0  0  0  0  0  0  0  0
    3.5922    4.5031    0.0000 F   0  0  0  0  0  0  0  0  0  0  0  0
   -2.1236   -0.4469    0.0000 C   0  0  0  0  0  0  0  0  0  0  0  0
   -2.1236   -1.2719    0.0000 C   0  0  0  0  0  0  0  0  0  0  0  0
   -2.1236   -2.9219    0.0000 C   0  0  0  0  0  0  0  0  0  0  0  0
   -2.8380   -2.5094    0.0000 C   0  0  0  0  0  0  0  0  0  0  0  0
   -3.5525   -2.9219    0.0000 C   0  0  0  0  0  0  0  0  0  0  0  0
   -3.5525   -3.7469    0.0000 C   0  0  0  0  0  0  0  0  0  0  0  0
   -2.8380   -4.1594    0.0000 N   0  0  0  0  0  0  0  0  0  0  0  0
   -2.1236   -3.7469    0.0000 C   0  0  0  0  0  0  0  0  0  0  0  0
  1  2  1  0  0  0  0
  2  3  2  0  0  0  0
  2  4  1  0  0  0  0
  4  5  1  0  0  0  0
  5  6  1  0  0  0  0
  6  7  1  0  0  0  0
  7  8  2  0  0  0  0
  8  9  1  0  0  0  0
  9 10  1  0  0  0  0
 10 11  2  0  0  0  0
 11 12  1  0  0  0  0
 12 13  1  0  0  0  0
 13 14  1  0  0  0  0
 14 15  1  0  0  0  0
 15 16  1  0  0  0  0
 16 17  2  0  0  0  0
 16 18  2  0  0  0  0
 16 19  1  0  0  0  0
 19 20  1  0  0  0  0
 20 21  2  0  0  0  0
 21 22  1  0  0  0  0
 22 23  2  0  0  0  0
 23 24  1  0  0  0  0
 19 24  2  0  0  0  0
 22 25  1  0  0  0  0
 25 26  1  0  0  0  0
 25 27  1  0  0  0  0
 25 28  1  0  0  0  0
 12 29  2  0  0  0  0
 29 30  1  0  0  0  0
  9 30  2  0  0  0  0
  8 31  1  0  0  0  0
 31 32  1  0  0  0  0
 32 33  2  0  0  0  0
 33 34  1  0  0  0  0
 34 35  2  0  0  0  0
 35 36  1  0  0  0  0
 31 36  2  0  0  0  0
M  END
>  <Name>
CHEMBL338360

>  <Target_Uniprot>
P21731

>  <CHEMBL Canonical SMILES>
OC(=O)CCC\C=C(/c1ccc(CCNS(=O)(=O)c2ccc(cc2)C(F)(F)F)cc1)\c3cccnc3

>  <PubMed ID>
8289199

$$$$

  Marvin  08031817322D          

 29 32  0  0  0  0            999 V2000
    2.4214    0.4844    0.0000 C   0  0  0  0  0  0  0  0  0  0  0  0
    1.9365   -0.1830    0.0000 S   0  0  0  0  0  0  0  0  0  0  0  0
    1.1160   -0.0968    0.0000 C   0  0  0  0  0  0  0  0  0  0  0  0
    1.8697    0.2388    0.0000 C   0  0  0  0  0  0  0  0  0  0  0  0
    0.6311   -0.7642    0.0000 C   0  0  0  0  0  0  0  0  0  0  0  0
    0.9666   -1.5179    0.0000 C   0  0  0  0  0  0  0  0  0  0  0  0
    0.4817   -2.1853    0.0000 C   0  0  0  0  0  0  0  0  0  0  0  0
    0.8173   -2.9390    0.0000 F   0  0  0  0  0  0  0  0  0  0  0  0
   -0.3388   -2.0991    0.0000 C   0  0  0  0  0  0  0  0  0  0  0  0
   -0.6743   -1.3454    0.0000 C   0  0  0  0  0  0  0  0  0  0  0  0
   -0.1894   -0.6780    0.0000 C   0  0  0  0  0  0  0  0  0  0  0  0
   -0.6743   -0.0105    0.0000 C   0  0  0  0  0  0  0  0  0  0  0  0
   -0.4194    0.7741    0.0000 S   0  0  0  0  0  0  0  0  0  0  0  0
    0.3876    0.9456    0.0000 C   0  0  0  0  0  0  0  0  0  0  0  0
    0.9396    0.3325    0.0000 C   0  0  0  0  0  0  0  0  0  0  0  0
    1.7466    0.5040    0.0000 C   0  0  0  0  0  0  0  0  0  0  0  0
    2.0015    1.2887    0.0000 C   0  0  0  0  0  0  0  0  0  0  0  0
    2.8085    1.4602    0.0000 Cl  0  0  0  0  0  0  0  0  0  0  0  0
    1.4495    1.9018    0.0000 C   0  0  0  0  0  0  0  0  0  0  0  0
    0.6425    1.7302    0.0000 C   0  0  0  0  0  0  0  0  0  0  0  0
   -1.4590   -0.2655    0.0000 C   0  0  0  0  0  0  0  0  0  0  0  0
   -2.2436   -0.0105    0.0000 C   0  0  0  0  0  0  0  0  0  0  0  0
   -2.4985    0.7741    0.0000 C   0  0  0  0  0  0  0  0  0  0  0  0
   -1.9465    1.3872    0.0000 C   0  0  0  0  0  0  0  0  0  0  0  0
   -1.1395    1.2157    0.0000 O   0  0  0  0  0  0  0  0  0  0  0  0
   -2.2014    2.1718    0.0000 O   0  0  0  0  0  0  0  0  0  0  0  0
   -2.7285   -0.6780    0.0000 C   0  0  0  0  0  0  0  0  0  0  0  0
   -2.2436   -1.3454    0.0000 C   0  0  0  0  0  0  0  0  0  0  0  0
   -1.4590   -1.0905    0.0000 N   0  0  0  0  0  0  0  0  0  0  0  0
  1  2  1  0  0  0  0
  2  3  1  0  0  0  0
  3  4  1  0  0  0  0
  3  5  1  0  0  0  0
  5  6  1  0  0  0  0
  6  7  2  0  0  0  0
  7  8  1  0  0  0  0
  7  9  1  0  0  0  0
  9 10  2  0  0  0  0
 10 11  1  0  0  0  0
  5 11  2  0  0  0  0
 11 12  1  0  0  0  0
 12 13  1  0  0  0  0
 13 14  1  0  0  0  0
 14 15  1  0  0  0  0
 15 16  2  0  0  0  0
 16 17  1  0  0  0  0
 17 18  1  0  0  0  0
 17 19  2  0  0  0  0
 19 20  1  0  0  0  0
 14 20  2  0  0  0  0
 12 21  2  0  0  0  0
 21 22  1  0  0  0  0
 22 23  1  0  0  0  0
 23 24  1  0  0  0  0
 24 25  2  0  0  0  0
 24 26  1  0  0  0  0
 22 27  1  0  0  0  0
 27 28  1  0  0  0  0
 28 29  1  0  0  0  0
 10 29  1  0  0  0  0
 21 29  1  0  0  0  0
M  END
>  <Name>
CHEMBL261811

>  <Target_Uniprot>
P21731

>  <CHEMBL Canonical SMILES>
CSC(C)c1cc(F)cc2c1c(Sc3ccc(Cl)cc3)c4C(CC(=O)O)CCn24

>  <PubMed ID>
18359630

$$$$

  Marvin  08031817322D          

 32 35  0  0  0  0            999 V2000
   -2.3017    4.8309    0.0000 C   0  0  0  0  0  0  0  0  0  0  0  0
   -2.1181    4.0266    0.0000 C   0  0  0  0  0  0  0  0  0  0  0  0
   -2.7229    3.4655    0.0000 C   0  0  0  0  0  0  0  0  0  0  0  0
   -2.5393    2.6612    0.0000 C   0  0  0  0  0  0  0  0  0  0  0  0
   -1.7509    2.4180    0.0000 C   0  0  0  0  0  0  0  0  0  0  0  0
   -1.1462    2.9791    0.0000 C   0  0  0  0  0  0  0  0  0  0  0  0
   -1.3297    3.7834    0.0000 C   0  0  0  0  0  0  0  0  0  0  0  0
   -1.5673    1.6137    0.0000 S   0  0  0  0  0  0  0  0  0  0  0  0
   -2.3717    1.4301    0.0000 O   0  0  0  0  0  0  0  0  0  0  0  0
   -0.7630    1.7973    0.0000 O   0  0  0  0  0  0  0  0  0  0  0  0
   -1.3838    0.8094    0.0000 N   0  0  0  0  0  0  0  0  0  0  0  0
   -0.5954    0.5662    0.0000 C   0  0  0  0  0  0  0  0  0  0  0  0
   -0.4118   -0.2381    0.0000 C   0  0  0  0  0  0  0  0  0  0  0  0
    0.3765   -0.4813    0.0000 S   0  0  0  0  0  0  0  0  0  0  0  0
    0.5601   -1.2856    0.0000 C   0  0  0  0  0  0  0  0  0  0  0  0
   -0.0849   -1.8000    0.0000 C   0  0  0  0  0  0  0  0  0  0  0  0
   -0.7994   -1.3875    0.0000 C   0  0  0  0  0  0  0  0  0  0  0  0
   -1.5139   -1.8000    0.0000 C   0  0  0  0  0  0  0  0  0  0  0  0
   -1.5139   -2.6250    0.0000 C   0  0  0  0  0  0  0  0  0  0  0  0
   -0.7994   -3.0375    0.0000 C   0  0  0  0  0  0  0  0  0  0  0  0
   -0.0849   -2.6250    0.0000 C   0  0  0  0  0  0  0  0  0  0  0  0
    0.5601   -3.1394    0.0000 C   0  0  0  0  0  0  0  0  0  0  0  0
    1.3644   -2.9558    0.0000 O   0  0  0  0  0  0  0  0  0  0  0  0
    1.7224   -2.2125    0.0000 C   0  0  0  0  0  0  0  0  0  0  0  0
    2.5451   -2.2741    0.0000 C   0  0  0  0  0  0  0  0  0  0  0  0
    3.0098   -1.5925    0.0000 C   0  0  0  0  0  0  0  0  0  0  0  0
    2.6518   -0.8492    0.0000 C   0  0  0  0  0  0  0  0  0  0  0  0
    1.8291   -0.7876    0.0000 C   0  0  0  0  0  0  0  0  0  0  0  0
    1.3644   -1.4692    0.0000 C   0  0  0  0  0  0  0  0  0  0  0  0
    3.1166   -0.1676    0.0000 C   0  0  0  0  0  0  0  0  0  0  0  0
    2.7586    0.5757    0.0000 O   0  0  0  0  0  0  0  0  0  0  0  0
    3.9393   -0.2292    0.0000 O   0  0  0  0  0  0  0  0  0  0  0  0
  1  2  1  0  0  0  0
  2  3  1  0  0  0  0
  3  4  2  0  0  0  0
  4  5  1  0  0  0  0
  5  6  2  0  0  0  0
  6  7  1  0  0  0  0
  2  7  2  0  0  0  0
  5  8  1  0  0  0  0
  8  9  2  0  0  0  0
  8 10  2  0  0  0  0
  8 11  1  0  0  0  0
 11 12  1  0  0  0  0
 12 13  1  0  0  0  0
 13 14  1  0  0  0  0
 14 15  1  0  0  0  0
 15 16  1  0  0  0  0
 16 17  1  0  0  0  0
 17 18  2  0  0  0  0
 18 19  1  0  0  0  0
 19 20  2  0  0  0  0
 20 21  1  0  0  0  0
 16 21  2  0  0  0  0
 21 22  1  0  0  0  0
 22 23  1  0  0  0  0
 23 24  1  0  0  0  0
 24 25  1  0  0  0  0
 25 26  2  0  0  0  0
 26 27  1  0  0  0  0
 27 28  2  0  0  0  0
 28 29  1  0  0  0  0
 15 29  1  0  0  0  0
 24 29  2  0  0  0  0
 27 30  1  0  0  0  0
 30 31  2  0  0  0  0
 30 32  1  0  0  0  0
M  END
>  <Name>
CHEMBL114826

>  <Target_Uniprot>
P21731

>  <CHEMBL Canonical SMILES>
Cc1ccc(cc1)S(=O)(=O)NCCSC2c3ccccc3COc4ccc(cc24)C(=O)O

>  <PubMed ID>
1388207

$$$$

  Marvin  08031817322D          

 30 31  0  0  1  0            999 V2000
   -6.2875   -4.4177    0.0000 C   0  0  0  0  0  0  0  0  0  0  0  0
   -5.4865   -4.2202    0.0000 C   0  0  0  0  0  0  0  0  0  0  0  0
   -5.1023   -3.4901    0.0000 C   0  0  0  0  0  0  0  0  0  0  0  0
   -4.3246   -3.2147    0.0000 C   0  0  0  0  0  0  0  0  0  0  0  0
   -3.9731   -2.4683    0.0000 C   0  0  0  0  0  0  0  0  0  0  0  0
   -3.2008   -2.1782    0.0000 C   0  0  0  0  0  0  0  0  0  0  0  0
   -2.9467   -1.3933    0.0000 C   0  0  0  0  0  0  0  0  0  0  0  0
   -2.1218   -1.4041    0.0000 N   0  0  0  0  0  0  0  0  0  0  0  0
   -1.8393   -0.6293    0.0000 C   0  0  0  0  0  0  0  0  0  0  0  0
   -1.0551   -0.3805    0.0000 C   0  0  0  0  0  0  0  0  0  0  0  0
   -0.9482    0.4306    0.0000 N   0  0  0  0  0  0  0  0  0  0  0  0
   -0.1473    0.5959    0.0000 C   0  0  0  0  0  0  0  0  0  0  0  0
    0.2461    1.3190    0.0000 C   0  0  0  0  0  0  0  0  0  0  0  0
    1.0044    1.6236    0.0000 C   0  0  0  0  0  0  0  0  0  0  0  0
    1.6556    1.1334    0.0000 C   0  0  0  0  0  0  0  0  0  0  0  0
    2.3958    1.4479    0.0000 C   0  0  0  0  0  0  0  0  0  0  0  0
    3.0799    1.0129    0.0000 C   0  0  0  0  0  0  0  0  0  0  0  0
    3.8527    1.2892    0.0000 C   0  0  0  0  0  0  0  0  0  0  0  0
    4.5643    0.8728    0.0000 C   0  0  0  0  0  0  0  0  0  0  0  0
    5.3575    1.0994    0.0000 C   0  0  0  0  0  0  0  0  0  0  0  0
    6.0297    0.6211    0.0000 C   0  0  0  0  0  0  0  0  0  0  0  0
    5.8324   -0.1799    0.0000 O   0  0  0  0  0  0  0  0  0  0  0  0
    6.7342    1.0504    0.0000 O   0  0  0  0  0  0  0  0  0  0  0  0
    0.9004    2.5089    0.0000 C   0  0  1  0  0  0  0  0  0  0  0  0
    0.3958    3.2890    0.0000 C   0  0  0  0  0  0  0  0  0  0  0  0
   -0.4308    2.9688    0.0000 C   0  0  0  0  0  0  0  0  0  0  0  0
   -0.2829    2.0434    0.0000 C   0  0  0  0  0  0  0  0  0  0  0  0
    0.1980    2.5345    0.0000 O   0  0  0  0  0  0  0  0  0  0  0  0
   -0.5323   -1.0146    0.0000 S   0  0  0  0  0  0  0  0  0  0  0  0
   -3.5675   -0.8498    0.0000 S   0  0  0  0  0  0  0  0  0  0  0  0
  1  2  1  0  0  0  0
  2  3  1  0  0  0  0
  3  4  1  0  0  0  0
  4  5  1  0  0  0  0
  5  6  1  0  0  0  0
  6  7  1  0  0  0  0
  7  8  2  0  0  0  0
  8  9  1  0  0  0  0
  9 10  1  0  0  0  0
 10 11  2  0  0  0  0
 11 12  1  0  0  0  0
 12 13  1  0  0  0  0
 13 14  1  0  0  0  0
 14 15  1  0  0  0  0
 15 16  1  0  0  0  0
 16 17  2  0  0  0  0
 17 18  1  0  0  0  0
 18 19  1  0  0  0  0
 19 20  1  0  0  0  0
 20 21  1  0  0  0  0
 21 22  2  0  0  0  0
 21 23  1  0  0  0  0
 14 24  1  0  0  0  0
 24 25  1  0  0  0  0
 25 26  1  0  0  0  0
 26 27  1  0  0  0  0
 13 27  1  0  0  0  0
 27 28  1  0  0  0  0
 24 28  1  1  0  0  0
 10 29  1  0  0  0  0
  7 30  1  0  0  0  0
M  END
>  <Name>
CHEMBL312360

>  <Target_Uniprot>
P21731

>  <CHEMBL Canonical SMILES>
CCCCCC\C(=N\C\C(=N\CC1C(C\C=C\CCCC(=O)O)[C@H]2CCC1O2)\S)\S

>  <PubMed ID>
2391688

$$$$

  Marvin  08031817322D          

 30 33  0  0  0  0            999 V2000
   -1.5037   -3.0970    0.0000 C   0  0  0  0  0  0  0  0  0  0  0  0
   -0.7736   -3.4747    0.0000 C   0  0  0  0  0  0  0  0  0  0  0  0
   -0.6429   -4.2870    0.0000 C   0  0  0  0  0  0  0  0  0  0  0  0
   -0.1714   -2.9173    0.0000 N   0  0  0  0  0  0  0  0  0  0  0  0
   -0.1737   -2.0986    0.0000 C   0  0  0  0  0  0  0  0  0  0  0  0
   -0.9329   -1.7913    0.0000 O   0  0  0  0  0  0  0  0  0  0  0  0
    0.5213   -1.6509    0.0000 C   0  0  0  0  0  0  0  0  0  0  0  0
    1.3027   -1.9012    0.0000 C   0  0  0  0  0  0  0  0  0  0  0  0
    1.7924   -1.2300    0.0000 O   0  0  0  0  0  0  0  0  0  0  0  0
    1.3097   -0.5748    0.0000 C   0  0  0  0  0  0  0  0  0  0  0  0
    0.5244   -0.8276    0.0000 N   0  0  0  0  0  0  0  0  0  0  0  0
    1.5461    0.2043    0.0000 C   0  0  0  0  0  0  0  0  0  0  0  0
    2.3591    0.5172    0.0000 C   0  0  0  0  0  0  0  0  0  0  0  0
    2.9438    1.2110    0.0000 C   0  0  0  0  0  0  0  0  0  0  0  0
    2.3892    1.9161    0.0000 C   0  0  0  0  0  0  0  0  0  0  0  0
    1.5649    1.5484    0.0000 C   0  0  0  0  0  0  0  0  0  0  0  0
    2.2021    1.2082    0.0000 O   0  0  0  0  0  0  0  0  0  0  0  0
    1.0431    0.8592    0.0000 C   0  0  0  0  0  0  0  0  0  0  0  0
    0.2283    0.9604    0.0000 C   0  0  0  0  0  0  0  0  0  0  0  0
   -0.1807    1.6296    0.0000 C   0  0  0  0  0  0  0  0  0  0  0  0
    0.2442    2.3445    0.0000 C   0  0  0  0  0  0  0  0  0  0  0  0
   -0.1691    3.0648    0.0000 C   0  0  0  0  0  0  0  0  0  0  0  0
   -0.9761    3.0641    0.0000 C   0  0  0  0  0  0  0  0  0  0  0  0
   -1.3896    2.3349    0.0000 C   0  0  0  0  0  0  0  0  0  0  0  0
   -0.9780    1.6156    0.0000 C   0  0  0  0  0  0  0  0  0  0  0  0
   -1.4411    0.9307    0.0000 C   0  0  0  0  0  0  0  0  0  0  0  0
   -2.2359    0.7693    0.0000 C   0  0  0  0  0  0  0  0  0  0  0  0
   -2.6871    0.0884    0.0000 C   0  0  0  0  0  0  0  0  0  0  0  0
   -2.2095   -0.5794    0.0000 O   0  0  0  0  0  0  0  0  0  0  0  0
   -3.5055    0.1631    0.0000 O   0  0  0  0  0  0  0  0  0  0  0  0
  1  2  1  0  0  0  0
  2  3  1  0  0  0  0
  2  4  1  0  0  0  0
  4  5  1  0  0  0  0
  5  6  2  0  0  0  0
  5  7  1  0  0  0  0
  7  8  2  0  0  0  0
  8  9  1  0  0  0  0
  9 10  1  0  0  0  0
 10 11  2  0  0  0  0
  7 11  1  0  0  0  0
 10 12  1  0  0  0  0
 12 13  1  0  0  0  0
 13 14  1  0  0  0  0
 14 15  1  0  0  0  0
 15 16  1  0  0  0  0
 16 17  1  0  0  0  0
 13 17  1  0  0  0  0
 16 18  1  0  0  0  0
 12 18  1  0  0  0  0
 18 19  1  0  0  0  0
 19 20  1  0  0  0  0
 20 21  1  0  0  0  0
 21 22  2  0  0  0  0
 22 23  1  0  0  0  0
 23 24  2  0  0  0  0
 24 25  1  0  0  0  0
 20 25  2  0  0  0  0
 25 26  1  0  0  0  0
 26 27  1  0  0  0  0
 27 28  1  0  0  0  0
 28 29  2  0  0  0  0
 28 30  1  0  0  0  0
M  END
>  <Name>
CHEMBL29947

>  <Target_Uniprot>
P21731

>  <CHEMBL Canonical SMILES>
CC(C)NC(=O)c1coc(n1)C2C3CCC(O3)C2Cc4ccccc4CCC(=O)O

>  <PubMed ID>
8496908

$$$$

  Marvin  08031817322D          

 31 34  0  0  0  0            999 V2000
    1.4238   -0.5039    0.0000 C   0  0  0  0  0  0  0  0  0  0  0  0
    1.2523   -1.3109    0.0000 C   0  0  0  0  0  0  0  0  0  0  0  0
    0.4453   -1.1393    0.0000 S   0  0  0  0  0  0  0  0  0  0  0  0
    0.1904   -0.3547    0.0000 C   0  0  0  0  0  0  0  0  0  0  0  0
   -0.6166   -0.1832    0.0000 C   0  0  0  0  0  0  0  0  0  0  0  0
   -0.8715    0.6014    0.0000 C   0  0  0  0  0  0  0  0  0  0  0  0
   -0.3866    1.2689    0.0000 C   0  0  0  0  0  0  0  0  0  0  0  0
   -0.8715    1.9363    0.0000 O   0  0  0  0  0  0  0  0  0  0  0  0
   -1.6561    1.6814    0.0000 C   0  0  0  0  0  0  0  0  0  0  0  0
   -2.3706    2.0939    0.0000 C   0  0  0  0  0  0  0  0  0  0  0  0
   -2.3706    2.9189    0.0000 O   0  0  0  0  0  0  0  0  0  0  0  0
   -1.6561    3.3314    0.0000 C   0  0  0  0  0  0  0  0  0  0  0  0
   -1.6561    4.1564    0.0000 C   0  0  0  0  0  0  0  0  0  0  0  0
   -2.3706    4.5689    0.0000 O   0  0  0  0  0  0  0  0  0  0  0  0
   -0.9417    4.5689    0.0000 O   0  0  0  0  0  0  0  0  0  0  0  0
   -3.0851    1.6814    0.0000 C   0  0  0  0  0  0  0  0  0  0  0  0
   -3.0851    0.8564    0.0000 C   0  0  0  0  0  0  0  0  0  0  0  0
   -2.3706    0.4439    0.0000 C   0  0  0  0  0  0  0  0  0  0  0  0
   -1.6561    0.8564    0.0000 C   0  0  0  0  0  0  0  0  0  0  0  0
    1.0808   -2.1178    0.0000 C   0  0  0  0  0  0  0  0  0  0  0  0
    0.2962   -2.3728    0.0000 C   0  0  0  0  0  0  0  0  0  0  0  0
    0.1246   -3.1797    0.0000 C   0  0  0  0  0  0  0  0  0  0  0  0
    0.7377   -3.7318    0.0000 C   0  0  0  0  0  0  0  0  0  0  0  0
    1.5224   -3.4768    0.0000 C   0  0  0  0  0  0  0  0  0  0  0  0
    1.6939   -2.6699    0.0000 C   0  0  0  0  0  0  0  0  0  0  0  0
    2.0593   -1.4824    0.0000 C   0  0  0  0  0  0  0  0  0  0  0  0
    2.3142   -2.2670    0.0000 C   0  0  0  0  0  0  0  0  0  0  0  0
    3.1212   -2.4385    0.0000 C   0  0  0  0  0  0  0  0  0  0  0  0
    3.6732   -1.8254    0.0000 C   0  0  0  0  0  0  0  0  0  0  0  0
    3.4183   -1.0408    0.0000 C   0  0  0  0  0  0  0  0  0  0  0  0
    2.6113   -0.8693    0.0000 C   0  0  0  0  0  0  0  0  0  0  0  0
  1  2  1  0  0  0  0
  2  3  1  0  0  0  0
  3  4  1  0  0  0  0
  4  5  1  0  0  0  0
  5  6  1  0  0  0  0
  6  7  2  0  0  0  0
  7  8  1  0  0  0  0
  8  9  1  0  0  0  0
  9 10  1  0  0  0  0
 10 11  1  0  0  0  0
 11 12  1  0  0  0  0
 12 13  1  0  0  0  0
 13 14  2  0  0  0  0
 13 15  1  0  0  0  0
 10 16  2  0  0  0  0
 16 17  1  0  0  0  0
 17 18  2  0  0  0  0
 18 19  1  0  0  0  0
  6 19  1  0  0  0  0
  9 19  2  0  0  0  0
  2 20  1  0  0  0  0
 20 21  1  0  0  0  0
 21 22  2  0  0  0  0
 22 23  1  0  0  0  0
 23 24  2  0  0  0  0
 24 25  1  0  0  0  0
 20 25  2  0  0  0  0
  2 26  1  0  0  0  0
 26 27  1  0  0  0  0
 27 28  2  0  0  0  0
 28 29  1  0  0  0  0
 29 30  2  0  0  0  0
 30 31  1  0  0  0  0
 26 31  2  0  0  0  0
M  END
>  <Name>
CHEMBL191056

>  <Target_Uniprot>
P21731

>  <CHEMBL Canonical SMILES>
CC(SCCc1coc2c(OCC(=O)O)cccc12)(c3ccccc3)c4ccccc4

>  <PubMed ID>
16078846

$$$$

  Marvin  08031817322D          

 33 35  0  0  0  0            999 V2000
    2.4465   -3.3625    0.0000 O   0  0  0  0  0  0  0  0  0  0  0  0
    2.4465   -2.5375    0.0000 C   0  0  0  0  0  0  0  0  0  0  0  0
    3.1610   -2.1250    0.0000 O   0  0  0  0  0  0  0  0  0  0  0  0
    1.7321   -2.1250    0.0000 C   0  0  0  0  0  0  0  0  0  0  0  0
    1.0176   -2.5375    0.0000 C   0  0  0  0  0  0  0  0  0  0  0  0
    0.3031   -2.1250    0.0000 O   0  0  0  0  0  0  0  0  0  0  0  0
   -0.4114   -2.5375    0.0000 N   0  0  0  0  0  0  0  0  0  0  0  0
   -1.1258   -2.1250    0.0000 C   0  0  0  0  0  0  0  0  0  0  0  0
   -1.1258   -1.3000    0.0000 C   0  0  0  0  0  0  0  0  0  0  0  0
   -0.4114   -0.8875    0.0000 C   0  0  0  0  0  0  0  0  0  0  0  0
   -0.4114   -0.0625    0.0000 C   0  0  0  0  0  0  0  0  0  0  0  0
   -1.1258    0.3500    0.0000 C   0  0  0  0  0  0  0  0  0  0  0  0
   -1.1258    1.1750    0.0000 C   0  0  0  0  0  0  0  0  0  0  0  0
   -0.4114    1.5875    0.0000 C   0  0  0  0  0  0  0  0  0  0  0  0
   -0.4114    2.4125    0.0000 N   0  0  0  0  0  0  0  0  0  0  0  0
    0.3031    2.8250    0.0000 S   0  0  0  0  0  0  0  0  0  0  0  0
   -0.1094    3.5395    0.0000 O   0  0  0  0  0  0  0  0  0  0  0  0
    0.7156    2.1105    0.0000 O   0  0  0  0  0  0  0  0  0  0  0  0
    1.0176    3.2375    0.0000 C   0  0  0  0  0  0  0  0  0  0  0  0
    1.7321    2.8250    0.0000 C   0  0  0  0  0  0  0  0  0  0  0  0
    2.4465    3.2375    0.0000 C   0  0  0  0  0  0  0  0  0  0  0  0
    2.4465    4.0625    0.0000 C   0  0  0  0  0  0  0  0  0  0  0  0
    3.1610    4.4750    0.0000 Cl  0  0  0  0  0  0  0  0  0  0  0  0
    1.7321    4.4750    0.0000 C   0  0  0  0  0  0  0  0  0  0  0  0
    1.0176    4.0625    0.0000 C   0  0  0  0  0  0  0  0  0  0  0  0
   -1.8403   -0.0625    0.0000 C   0  0  0  0  0  0  0  0  0  0  0  0
   -1.8403   -0.8875    0.0000 C   0  0  0  0  0  0  0  0  0  0  0  0
   -1.8403   -2.5375    0.0000 C   0  0  0  0  0  0  0  0  0  0  0  0
   -2.5548   -2.1250    0.0000 C   0  0  0  0  0  0  0  0  0  0  0  0
   -3.2692   -2.5375    0.0000 C   0  0  0  0  0  0  0  0  0  0  0  0
   -3.2692   -3.3625    0.0000 C   0  0  0  0  0  0  0  0  0  0  0  0
   -2.5548   -3.7750    0.0000 N   0  0  0  0  0  0  0  0  0  0  0  0
   -1.8403   -3.3625    0.0000 C   0  0  0  0  0  0  0  0  0  0  0  0
  1  2  1  0  0  0  0
  2  3  2  0  0  0  0
  2  4  1  0  0  0  0
  4  5  1  0  0  0  0
  5  6  1  0  0  0  0
  6  7  1  0  0  0  0
  7  8  2  0  0  0  0
  8  9  1  0  0  0  0
  9 10  1  0  0  0  0
 10 11  2  0  0  0  0
 11 12  1  0  0  0  0
 12 13  1  0  0  0  0
 13 14  1  0  0  0  0
 14 15  1  0  0  0  0
 15 16  1  0  0  0  0
 16 17  2  0  0  0  0
 16 18  2  0  0  0  0
 16 19  1  0  0  0  0
 19 20  1  0  0  0  0
 20 21  2  0  0  0  0
 21 22  1  0  0  0  0
 22 23  1  0  0  0  0
 22 24  2  0  0  0  0
 24 25  1  0  0  0  0
 19 25  2  0  0  0  0
 12 26  2  0  0  0  0
 26 27  1  0  0  0  0
  9 27  2  0  0  0  0
  8 28  1  0  0  0  0
 28 29  1  0  0  0  0
 29 30  2  0  0  0  0
 30 31  1  0  0  0  0
 31 32  2  0  0  0  0
 32 33  1  0  0  0  0
 28 33  2  0  0  0  0
M  END
>  <Name>
CHEMBL126494

>  <Target_Uniprot>
P21731

>  <CHEMBL Canonical SMILES>
OC(=O)CCO\N=C(/c1ccc(CCNS(=O)(=O)c2ccc(Cl)cc2)cc1)\c3cccnc3

>  <PubMed ID>
8289199

$$$$

  Marvin  08031817322D          

 34 36  0  0  0  0            999 V2000
   -1.0927   -2.7419    0.0000 C   0  0  0  0  0  0  0  0  0  0  0  0
   -0.3782   -2.3294    0.0000 N   0  0  0  0  0  0  0  0  0  0  0  0
   -0.3782   -1.5044    0.0000 C   0  0  0  0  0  0  0  0  0  0  0  0
   -1.0927   -1.0919    0.0000 C   0  0  0  0  0  0  0  0  0  0  0  0
   -1.0927   -0.2669    0.0000 C   0  0  0  0  0  0  0  0  0  0  0  0
   -0.3782    0.1456    0.0000 C   0  0  0  0  0  0  0  0  0  0  0  0
   -0.3782    0.9706    0.0000 C   0  0  0  0  0  0  0  0  0  0  0  0
   -1.0927    1.3831    0.0000 C   0  0  0  0  0  0  0  0  0  0  0  0
   -1.8072    0.9706    0.0000 C   0  0  0  0  0  0  0  0  0  0  0  0
   -1.8072    0.1456    0.0000 C   0  0  0  0  0  0  0  0  0  0  0  0
   -1.0927    2.2081    0.0000 C   0  0  0  0  0  0  0  0  0  0  0  0
   -0.3782    2.6206    0.0000 C   0  0  0  0  0  0  0  0  0  0  0  0
    0.3362    2.2081    0.0000 C   0  0  0  0  0  0  0  0  0  0  0  0
    1.0507    2.6206    0.0000 C   0  0  0  0  0  0  0  0  0  0  0  0
    1.7652    2.2081    0.0000 C   0  0  0  0  0  0  0  0  0  0  0  0
    2.4796    2.6206    0.0000 C   0  0  0  0  0  0  0  0  0  0  0  0
    2.4796    3.4456    0.0000 O   0  0  0  0  0  0  0  0  0  0  0  0
    3.1941    2.2081    0.0000 O   0  0  0  0  0  0  0  0  0  0  0  0
   -1.8072    2.6206    0.0000 C   0  0  0  0  0  0  0  0  0  0  0  0
   -1.8072    3.4456    0.0000 C   0  0  0  0  0  0  0  0  0  0  0  0
   -2.5217    3.8581    0.0000 C   0  0  0  0  0  0  0  0  0  0  0  0
   -3.2361    3.4456    0.0000 C   0  0  0  0  0  0  0  0  0  0  0  0
   -3.2361    2.6206    0.0000 N   0  0  0  0  0  0  0  0  0  0  0  0
   -2.5217    2.2081    0.0000 C   0  0  0  0  0  0  0  0  0  0  0  0
    0.3362   -2.7419    0.0000 S   0  0  0  0  0  0  0  0  0  0  0  0
    0.7487   -2.0274    0.0000 O   0  0  0  0  0  0  0  0  0  0  0  0
   -0.0763   -3.4564    0.0000 O   0  0  0  0  0  0  0  0  0  0  0  0
    1.0507   -3.1544    0.0000 C   0  0  0  0  0  0  0  0  0  0  0  0
    1.0507   -3.9794    0.0000 C   0  0  0  0  0  0  0  0  0  0  0  0
    1.7652   -4.3919    0.0000 C   0  0  0  0  0  0  0  0  0  0  0  0
    2.4796   -3.9794    0.0000 C   0  0  0  0  0  0  0  0  0  0  0  0
    3.1941   -4.3919    0.0000 Cl  0  0  0  0  0  0  0  0  0  0  0  0
    2.4796   -3.1544    0.0000 C   0  0  0  0  0  0  0  0  0  0  0  0
    1.7652   -2.7419    0.0000 C   0  0  0  0  0  0  0  0  0  0  0  0
  1  2  1  0  0  0  0
  2  3  1  0  0  0  0
  3  4  1  0  0  0  0
  4  5  1  0  0  0  0
  5  6  1  0  0  0  0
  6  7  2  0  0  0  0
  7  8  1  0  0  0  0
  8  9  2  0  0  0  0
  9 10  1  0  0  0  0
  5 10  2  0  0  0  0
  8 11  1  0  0  0  0
 11 12  2  0  0  0  0
 12 13  1  0  0  0  0
 13 14  1  0  0  0  0
 14 15  1  0  0  0  0
 15 16  1  0  0  0  0
 16 17  2  0  0  0  0
 16 18  1  0  0  0  0
 11 19  1  0  0  0  0
 19 20  1  0  0  0  0
 20 21  2  0  0  0  0
 21 22  1  0  0  0  0
 22 23  2  0  0  0  0
 23 24  1  0  0  0  0
 19 24  2  0  0  0  0
  2 25  1  0  0  0  0
 25 26  2  0  0  0  0
 25 27  2  0  0  0  0
 25 28  1  0  0  0  0
 28 29  1  0  0  0  0
 29 30  2  0  0  0  0
 30 31  1  0  0  0  0
 31 32  1  0  0  0  0
 31 33  2  0  0  0  0
 33 34  1  0  0  0  0
 28 34  2  0  0  0  0
M  END
>  <Name>
CHEMBL129355

>  <Target_Uniprot>
P21731

>  <CHEMBL Canonical SMILES>
CN(CCc1ccc(cc1)\C(=C/CCCC(=O)O)\c2cccnc2)S(=O)(=O)c3ccc(Cl)cc3

>  <PubMed ID>
8289199

$$$$

  Marvin  08031817322D          

 31 34  0  0  0  0            999 V2000
    2.7360    0.5056    0.0000 O   0  0  0  0  0  0  0  0  0  0  0  0
    2.7360    1.3306    0.0000 C   0  0  0  0  0  0  0  0  0  0  0  0
    3.4504    1.7431    0.0000 O   0  0  0  0  0  0  0  0  0  0  0  0
    2.0215    1.7431    0.0000 C   0  0  0  0  0  0  0  0  0  0  0  0
    2.0215    2.5681    0.0000 C   0  0  0  0  0  0  0  0  0  0  0  0
    1.3070    2.9806    0.0000 C   0  0  0  0  0  0  0  0  0  0  0  0
    0.5925    2.5681    0.0000 C   0  0  0  0  0  0  0  0  0  0  0  0
   -0.0525    3.0825    0.0000 C   0  0  0  0  0  0  0  0  0  0  0  0
   -0.8568    2.8989    0.0000 C   0  0  0  0  0  0  0  0  0  0  0  0
   -1.2147    2.1556    0.0000 C   0  0  0  0  0  0  0  0  0  0  0  0
   -2.0374    2.2172    0.0000 C   0  0  0  0  0  0  0  0  0  0  0  0
   -2.5022    1.5356    0.0000 C   0  0  0  0  0  0  0  0  0  0  0  0
   -2.1442    0.7923    0.0000 C   0  0  0  0  0  0  0  0  0  0  0  0
   -1.3215    0.7306    0.0000 C   0  0  0  0  0  0  0  0  0  0  0  0
   -0.8568    1.4123    0.0000 C   0  0  0  0  0  0  0  0  0  0  0  0
   -0.0525    1.2287    0.0000 C   0  0  0  0  0  0  0  0  0  0  0  0
    0.1311    0.4244    0.0000 S   0  0  0  0  0  0  0  0  0  0  0  0
   -0.4737   -0.1368    0.0000 C   0  0  0  0  0  0  0  0  0  0  0  0
   -0.2901   -0.9411    0.0000 C   0  0  0  0  0  0  0  0  0  0  0  0
   -0.8948   -1.5022    0.0000 N   0  0  0  0  0  0  0  0  0  0  0  0
   -0.7113   -2.3065    0.0000 S   0  0  0  0  0  0  0  0  0  0  0  0
    0.0931   -2.1230    0.0000 O   0  0  0  0  0  0  0  0  0  0  0  0
   -1.5156   -2.4901    0.0000 O   0  0  0  0  0  0  0  0  0  0  0  0
   -0.5277   -3.1109    0.0000 C   0  0  0  0  0  0  0  0  0  0  0  0
   -1.1325   -3.6720    0.0000 C   0  0  0  0  0  0  0  0  0  0  0  0
   -0.9489   -4.4763    0.0000 C   0  0  0  0  0  0  0  0  0  0  0  0
   -0.1605   -4.7195    0.0000 C   0  0  0  0  0  0  0  0  0  0  0  0
    0.4442   -4.1583    0.0000 C   0  0  0  0  0  0  0  0  0  0  0  0
    0.2607   -3.3540    0.0000 C   0  0  0  0  0  0  0  0  0  0  0  0
    0.5925    1.7431    0.0000 C   0  0  0  0  0  0  0  0  0  0  0  0
    1.3070    1.3306    0.0000 C   0  0  0  0  0  0  0  0  0  0  0  0
  1  2  1  0  0  0  0
  2  3  2  0  0  0  0
  2  4  1  0  0  0  0
  4  5  1  0  0  0  0
  5  6  2  0  0  0  0
  6  7  1  0  0  0  0
  7  8  1  0  0  0  0
  8  9  2  0  0  0  0
  9 10  1  0  0  0  0
 10 11  1  0  0  0  0
 11 12  2  0  0  0  0
 12 13  1  0  0  0  0
 13 14  2  0  0  0  0
 14 15  1  0  0  0  0
 10 15  2  0  0  0  0
 15 16  1  0  0  0  0
 16 17  1  0  0  0  0
 17 18  1  0  0  0  0
 18 19  1  0  0  0  0
 19 20  1  0  0  0  0
 20 21  1  0  0  0  0
 21 22  2  0  0  0  0
 21 23  2  0  0  0  0
 21 24  1  0  0  0  0
 24 25  1  0  0  0  0
 25 26  2  0  0  0  0
 26 27  1  0  0  0  0
 27 28  2  0  0  0  0
 28 29  1  0  0  0  0
 24 29  2  0  0  0  0
 16 30  1  0  0  0  0
  7 30  2  0  0  0  0
 30 31  1  0  0  0  0
  4 31  2  0  0  0  0
M  END
>  <Name>
CHEMBL415239

>  <Target_Uniprot>
P21731

>  <CHEMBL Canonical SMILES>
OC(=O)c1ccc2C=Cc3ccccc3C(SCCNS(=O)(=O)c4ccccc4)c2c1

>  <PubMed ID>
1388207

$$$$

  Marvin  08031817322D          

 30 33  0  0  0  0            999 V2000
   -0.3178   -0.5418    0.0000 C   0  0  0  0  0  0  0  0  0  0  0  0
   -1.1428   -0.5418    0.0000 S   0  0  0  0  0  0  0  0  0  0  0  0
   -1.9678   -0.5418    0.0000 O   0  0  0  0  0  0  0  0  0  0  0  0
   -1.5553   -1.2562    0.0000 O   0  0  0  0  0  0  0  0  0  0  0  0
   -1.1428    0.2832    0.0000 C   0  0  0  0  0  0  0  0  0  0  0  0
   -1.8572    0.6957    0.0000 C   0  0  0  0  0  0  0  0  0  0  0  0
   -1.8572    1.5207    0.0000 C   0  0  0  0  0  0  0  0  0  0  0  0
   -1.1428    1.9332    0.0000 N   0  0  0  0  0  0  0  0  0  0  0  0
   -0.4283    1.5207    0.0000 C   0  0  0  0  0  0  0  0  0  0  0  0
   -0.4283    0.6957    0.0000 C   0  0  0  0  0  0  0  0  0  0  0  0
    0.3563    0.4408    0.0000 C   0  0  0  0  0  0  0  0  0  0  0  0
    0.6113   -0.3438    0.0000 S   0  0  0  0  0  0  0  0  0  0  0  0
    0.0592   -0.9569    0.0000 C   0  0  0  0  0  0  0  0  0  0  0  0
   -0.7477   -0.7854    0.0000 C   0  0  0  0  0  0  0  0  0  0  0  0
   -1.2998   -1.3985    0.0000 C   0  0  0  0  0  0  0  0  0  0  0  0
   -1.0448   -2.1831    0.0000 C   0  0  0  0  0  0  0  0  0  0  0  0
   -1.5969   -2.7962    0.0000 F   0  0  0  0  0  0  0  0  0  0  0  0
   -0.2379   -2.3546    0.0000 C   0  0  0  0  0  0  0  0  0  0  0  0
    0.3142   -1.7416    0.0000 C   0  0  0  0  0  0  0  0  0  0  0  0
    1.1211   -1.9131    0.0000 Cl  0  0  0  0  0  0  0  0  0  0  0  0
    0.8412    1.1082    0.0000 C   0  0  0  0  0  0  0  0  0  0  0  0
    1.6617    1.1945    0.0000 C   0  0  0  0  0  0  0  0  0  0  0  0
    2.1466    0.5270    0.0000 C   0  0  0  0  0  0  0  0  0  0  0  0
    1.8111   -0.2267    0.0000 C   0  0  0  0  0  0  0  0  0  0  0  0
    0.9906   -0.3129    0.0000 O   0  0  0  0  0  0  0  0  0  0  0  0
    2.2960   -0.8941    0.0000 O   0  0  0  0  0  0  0  0  0  0  0  0
    1.9973    1.9481    0.0000 C   0  0  0  0  0  0  0  0  0  0  0  0
    1.5124    2.6156    0.0000 C   0  0  0  0  0  0  0  0  0  0  0  0
    0.6919    2.5293    0.0000 C   0  0  0  0  0  0  0  0  0  0  0  0
    0.3563    1.7757    0.0000 N   0  0  0  0  0  0  0  0  0  0  0  0
  1  2  1  0  0  0  0
  2  3  2  0  0  0  0
  2  4  2  0  0  0  0
  2  5  1  0  0  0  0
  5  6  1  0  0  0  0
  6  7  2  0  0  0  0
  7  8  1  0  0  0  0
  8  9  2  0  0  0  0
  9 10  1  0  0  0  0
  5 10  2  0  0  0  0
 10 11  1  0  0  0  0
 11 12  1  0  0  0  0
 12 13  1  0  0  0  0
 13 14  1  0  0  0  0
 14 15  2  0  0  0  0
 15 16  1  0  0  0  0
 16 17  1  0  0  0  0
 16 18  2  0  0  0  0
 18 19  1  0  0  0  0
 13 19  2  0  0  0  0
 19 20  1  0  0  0  0
 11 21  2  0  0  0  0
 21 22  1  0  0  0  0
 22 23  1  0  0  0  0
 23 24  1  0  0  0  0
 24 25  2  0  0  0  0
 24 26  1  0  0  0  0
 22 27  1  0  0  0  0
 27 28  1  0  0  0  0
 28 29  1  0  0  0  0
 29 30  1  0  0  0  0
  9 30  1  0  0  0  0
 21 30  1  0  0  0  0
M  END
>  <Name>
CHEMBL484130

>  <Target_Uniprot>
P21731

>  <CHEMBL Canonical SMILES>
CS(=O)(=O)c1ccnc2c1c(Sc3ccc(F)cc3Cl)c4C(CC(=O)O)CCCn24

>  <PubMed ID>
19307115

$$$$

  Marvin  08031817322D          

 27 28  0  0  1  0            999 V2000
   -4.8547   -2.5492    0.0000 C   0  0  0  0  0  0  0  0  0  0  0  0
   -4.0515   -2.3507    0.0000 C   0  0  0  0  0  0  0  0  0  0  0  0
   -3.6683   -1.6175    0.0000 C   0  0  0  0  0  0  0  0  0  0  0  0
   -2.8872   -1.3442    0.0000 C   0  0  0  0  0  0  0  0  0  0  0  0
   -2.5499   -0.5907    0.0000 C   0  0  0  0  0  0  0  0  0  0  0  0
   -1.7290   -0.5273    0.0000 C   0  0  0  0  0  0  0  0  0  0  0  0
   -1.1629   -1.1262    0.0000 O   0  0  0  0  0  0  0  0  0  0  0  0
   -1.5974    0.2849    0.0000 C   0  0  0  0  0  0  0  0  0  0  0  0
   -0.8195    0.5143    0.0000 C   0  0  0  0  0  0  0  0  0  0  0  0
   -0.5681    1.2806    0.0000 C   0  0  2  0  0  0  0  0  0  0  0  0
    0.2178    1.3687    0.0000 C   0  0  1  0  0  0  0  0  0  0  0  0
    1.0790    1.1273    0.0000 C   0  0  0  0  0  0  0  0  0  0  0  0
    1.8281    1.4697    0.0000 C   0  0  0  0  0  0  0  0  0  0  0  0
    2.4423    0.9189    0.0000 C   0  0  0  0  0  0  0  0  0  0  0  0
    2.3441    0.1007    0.0000 C   0  0  0  0  0  0  0  0  0  0  0  0
    2.9741   -0.4307    0.0000 C   0  0  0  0  0  0  0  0  0  0  0  0
    2.9946   -1.2546    0.0000 C   0  0  0  0  0  0  0  0  0  0  0  0
    3.6574   -1.7458    0.0000 C   0  0  0  0  0  0  0  0  0  0  0  0
    4.3627   -1.3147    0.0000 O   0  0  0  0  0  0  0  0  0  0  0  0
    3.4717   -2.5513    0.0000 O   0  0  0  0  0  0  0  0  0  0  0  0
    0.4028    2.1724    0.0000 C   0  0  2  0  0  0  0  0  0  0  0  0
   -0.3262    2.5757    0.0000 C   0  0  0  0  0  0  0  0  0  0  0  0
   -0.9365    2.0191    0.0000 C   0  0  1  0  0  0  0  0  0  0  0  0
   -0.9706    1.1897    0.0000 O   0  0  0  0  0  0  0  0  0  0  0  0
   -0.1429    0.9165    0.0000 C   0  0  0  0  0  0  0  0  0  0  0  0
   -0.1116    0.1111    0.0000 O   0  0  0  0  0  0  0  0  0  0  0  0
    0.6017    1.3533    0.0000 O   0  0  0  0  0  0  0  0  0  0  0  0
  1  2  1  0  0  0  0
  2  3  1  0  0  0  0
  3  4  1  0  0  0  0
  4  5  1  0  0  0  0
  5  6  1  0  0  0  0
  6  7  1  0  0  0  0
  6  8  1  0  0  0  0
  8  9  2  0  0  0  0
 10  9  1  1  0  0  0
 10 11  1  0  0  0  0
 11 12  1  6  0  0  0
 12 13  1  0  0  0  0
 13 14  2  0  0  0  0
 14 15  1  0  0  0  0
 15 16  1  0  0  0  0
 16 17  1  0  0  0  0
 17 18  1  0  0  0  0
 18 19  2  0  0  0  0
 18 20  1  0  0  0  0
 11 21  1  0  0  0  0
 21 22  1  6  0  0  0
 23 22  1  6  0  0  0
 10 23  1  0  0  0  0
 23 24  1  0  0  0  0
 24 25  1  0  0  0  0
 25 26  2  0  0  0  0
 25 27  1  0  0  0  0
 21 27  1  0  0  0  0
M  END
>  <Name>
CHEMBL417967

>  <Target_Uniprot>
P21731

>  <CHEMBL Canonical SMILES>
CCCCCC(O)\C=C\[C@@H]1[C@@H](C\C=C/CCCC(=O)O)[C@@H]2C[C@H]1OC(=O)O2

$$$$

  Marvin  08031817322D          

 35 38  0  0  1  0            999 V2000
    0.3270   -1.8093    0.0000 O   0  0  0  0  0  0  0  0  0  0  0  0
    0.8790   -2.4224    0.0000 C   0  0  0  0  0  0  0  0  0  0  0  0
    0.6241   -3.2070    0.0000 O   0  0  0  0  0  0  0  0  0  0  0  0
    1.6860   -2.2509    0.0000 C   0  0  0  0  0  0  0  0  0  0  0  0
    1.9410   -1.4662    0.0000 C   0  0  0  0  0  0  0  0  0  0  0  0
    2.7479   -1.2947    0.0000 C   0  0  0  0  0  0  0  0  0  0  0  0
    3.3000   -1.9078    0.0000 C   0  0  0  0  0  0  0  0  0  0  0  0
    4.1069   -1.7363    0.0000 C   0  0  0  0  0  0  0  0  0  0  0  0
    4.3619   -0.9517    0.0000 C   0  0  0  0  0  0  0  0  0  0  0  0
    3.8098   -0.3386    0.0000 C   0  0  0  0  0  0  0  0  0  0  0  0
    3.0029   -0.5101    0.0000 C   0  0  0  0  0  0  0  0  0  0  0  0
    2.4508    0.1030    0.0000 C   0  0  0  0  0  0  0  0  0  0  0  0
    2.7058    0.8876    0.0000 C   0  0  2  0  0  0  0  0  0  0  0  0
    3.4904    1.1426    0.0000 C   0  0  0  0  0  0  0  0  0  0  0  0
    3.4904    1.9676    0.0000 C   0  0  0  0  0  0  0  0  0  0  0  0
    2.7058    2.2225    0.0000 C   0  0  0  0  0  0  0  0  0  0  0  0
    2.2209    1.5551    0.0000 C   0  0  2  0  0  0  0  0  0  0  0  0
    1.3959    1.5551    0.0000 C   0  0  0  0  0  0  0  0  0  0  0  0
    0.9109    2.2225    0.0000 O   0  0  0  0  0  0  0  0  0  0  0  0
    0.1263    1.9676    0.0000 C   0  0  0  0  0  0  0  0  0  0  0  0
    0.1263    1.1426    0.0000 C   0  0  0  0  0  0  0  0  0  0  0  0
    0.9109    0.8876    0.0000 N   0  0  0  0  0  0  0  0  0  0  0  0
   -0.5411    0.6576    0.0000 C   0  0  0  0  0  0  0  0  0  0  0  0
   -0.4549   -0.1628    0.0000 O   0  0  0  0  0  0  0  0  0  0  0  0
   -1.2948    0.9932    0.0000 N   0  0  0  0  0  0  0  0  0  0  0  0
   -1.9622    0.5083    0.0000 C   0  0  0  0  0  0  0  0  0  0  0  0
   -2.7159    0.8438    0.0000 C   0  0  0  0  0  0  0  0  0  0  0  0
   -3.3834    0.3589    0.0000 C   0  0  0  0  0  0  0  0  0  0  0  0
   -4.1370    0.6945    0.0000 C   0  0  0  0  0  0  0  0  0  0  0  0
   -4.8045    0.2095    0.0000 C   0  0  0  0  0  0  0  0  0  0  0  0
   -5.5581    0.5451    0.0000 C   0  0  0  0  0  0  0  0  0  0  0  0
   -6.2256    0.0602    0.0000 C   0  0  0  0  0  0  0  0  0  0  0  0
   -6.1394   -0.7603    0.0000 C   0  0  0  0  0  0  0  0  0  0  0  0
   -5.3857   -1.0959    0.0000 C   0  0  0  0  0  0  0  0  0  0  0  0
   -4.7182   -0.6109    0.0000 C   0  0  0  0  0  0  0  0  0  0  0  0
  1  2  1  0  0  0  0
  2  3  2  0  0  0  0
  2  4  1  0  0  0  0
  4  5  1  0  0  0  0
  5  6  1  0  0  0  0
  6  7  1  0  0  0  0
  7  8  2  0  0  0  0
  8  9  1  0  0  0  0
  9 10  2  0  0  0  0
 10 11  1  0  0  0  0
  6 11  2  0  0  0  0
 11 12  1  0  0  0  0
 13 12  1  1  0  0  0
 13 14  1  0  0  0  0
 14 15  1  0  0  0  0
 15 16  1  0  0  0  0
 16 17  1  0  0  0  0
 13 17  1  0  0  0  0
 17 18  1  1  0  0  0
 18 19  1  0  0  0  0
 19 20  1  0  0  0  0
 20 21  2  0  0  0  0
 21 22  1  0  0  0  0
 18 22  2  0  0  0  0
 21 23  1  0  0  0  0
 23 24  2  0  0  0  0
 23 25  1  0  0  0  0
 25 26  1  0  0  0  0
 26 27  1  0  0  0  0
 27 28  1  0  0  0  0
 28 29  1  0  0  0  0
 29 30  1  0  0  0  0
 30 31  1  0  0  0  0
 31 32  1  0  0  0  0
 32 33  1  0  0  0  0
 33 34  1  0  0  0  0
 34 35  1  0  0  0  0
 30 35  1  0  0  0  0
M  END
>  <Name>
CHEMBL22244

>  <Target_Uniprot>
P21731

>  <CHEMBL Canonical SMILES>
OC(=O)CCc1ccccc1C[C@@H]2CCC[C@@H]2c3occ(n3)C(=O)NCCCCC4CCCCC4

$$$$

  Marvin  08031817322D          

 26 28  0  0  0  0            999 V2000
    1.0046    1.6170    0.0000 C   0  0  0  0  0  0  0  0  0  0  0  0
    1.7191    1.2045    0.0000 C   0  0  0  0  0  0  0  0  0  0  0  0
    2.4336    0.7920    0.0000 C   0  0  0  0  0  0  0  0  0  0  0  0
    2.1316    1.9190    0.0000 C   0  0  0  0  0  0  0  0  0  0  0  0
    2.9566    1.9190    0.0000 C   0  0  0  0  0  0  0  0  0  0  0  0
    3.3691    1.2045    0.0000 O   0  0  0  0  0  0  0  0  0  0  0  0
    3.3691    2.6335    0.0000 O   0  0  0  0  0  0  0  0  0  0  0  0
    1.3066    0.4901    0.0000 C   0  0  0  0  0  0  0  0  0  0  0  0
    0.4816    0.4901    0.0000 C   0  0  0  0  0  0  0  0  0  0  0  0
   -0.0033    1.1575    0.0000 N   0  0  0  0  0  0  0  0  0  0  0  0
   -0.7879    0.9026    0.0000 C   0  0  0  0  0  0  0  0  0  0  0  0
   -1.5024    1.3151    0.0000 C   0  0  0  0  0  0  0  0  0  0  0  0
   -2.2169    0.9026    0.0000 C   0  0  0  0  0  0  0  0  0  0  0  0
   -2.9314    1.3151    0.0000 Cl  0  0  0  0  0  0  0  0  0  0  0  0
   -2.2169    0.0776    0.0000 C   0  0  0  0  0  0  0  0  0  0  0  0
   -1.5024   -0.3349    0.0000 C   0  0  0  0  0  0  0  0  0  0  0  0
   -0.7879    0.0776    0.0000 C   0  0  0  0  0  0  0  0  0  0  0  0
   -0.0033   -0.1774    0.0000 N   0  0  0  0  0  0  0  0  0  0  0  0
    0.2516   -0.9620    0.0000 C   0  0  0  0  0  0  0  0  0  0  0  0
   -0.3004   -1.5751    0.0000 C   0  0  0  0  0  0  0  0  0  0  0  0
   -1.1074   -1.4036    0.0000 C   0  0  0  0  0  0  0  0  0  0  0  0
   -1.6594   -2.0167    0.0000 C   0  0  0  0  0  0  0  0  0  0  0  0
   -1.4045   -2.8013    0.0000 C   0  0  0  0  0  0  0  0  0  0  0  0
   -1.9565   -3.4144    0.0000 Cl  0  0  0  0  0  0  0  0  0  0  0  0
   -0.5975   -2.9728    0.0000 C   0  0  0  0  0  0  0  0  0  0  0  0
   -0.0455   -2.3597    0.0000 C   0  0  0  0  0  0  0  0  0  0  0  0
  1  2  1  0  0  0  0
  2  3  1  0  0  0  0
  2  4  1  0  0  0  0
  4  5  1  0  0  0  0
  5  6  2  0  0  0  0
  5  7  1  0  0  0  0
  2  8  1  0  0  0  0
  8  9  1  0  0  0  0
  9 10  2  0  0  0  0
 10 11  1  0  0  0  0
 11 12  1  0  0  0  0
 12 13  2  0  0  0  0
 13 14  1  0  0  0  0
 13 15  1  0  0  0  0
 15 16  2  0  0  0  0
 16 17  1  0  0  0  0
 11 17  2  0  0  0  0
 17 18  1  0  0  0  0
  9 18  1  0  0  0  0
 18 19  1  0  0  0  0
 19 20  1  0  0  0  0
 20 21  1  0  0  0  0
 21 22  2  0  0  0  0
 22 23  1  0  0  0  0
 23 24  1  0  0  0  0
 23 25  2  0  0  0  0
 25 26  1  0  0  0  0
 20 26  2  0  0  0  0
M  END
>  <Name>
CHEMBL417820

>  <Target_Uniprot>
P21731

>  <CHEMBL Canonical SMILES>
CC(C)(CC(=O)O)Cc1nc2cc(Cl)ccc2n1Cc3ccc(Cl)cc3

>  <PubMed ID>
8487256

$$$$

  Marvin  08031817322D          

 27 29  0  0  0  0            999 V2000
    0.8646    1.4401    0.0000 C   0  0  0  0  0  0  0  0  0  0  0  0
    1.5790    1.0276    0.0000 C   0  0  0  0  0  0  0  0  0  0  0  0
    2.2935    0.6151    0.0000 C   0  0  0  0  0  0  0  0  0  0  0  0
    1.9915    1.7421    0.0000 C   0  0  0  0  0  0  0  0  0  0  0  0
    2.8165    1.7421    0.0000 C   0  0  0  0  0  0  0  0  0  0  0  0
    3.2290    2.4566    0.0000 C   0  0  0  0  0  0  0  0  0  0  0  0
    2.8165    3.1710    0.0000 O   0  0  0  0  0  0  0  0  0  0  0  0
    4.0540    2.4566    0.0000 O   0  0  0  0  0  0  0  0  0  0  0  0
    1.1665    0.3131    0.0000 C   0  0  0  0  0  0  0  0  0  0  0  0
    0.3415    0.3131    0.0000 C   0  0  0  0  0  0  0  0  0  0  0  0
   -0.1434    0.9806    0.0000 N   0  0  0  0  0  0  0  0  0  0  0  0
   -0.9280    0.7256    0.0000 C   0  0  0  0  0  0  0  0  0  0  0  0
   -1.6425    1.1381    0.0000 C   0  0  0  0  0  0  0  0  0  0  0  0
   -2.3569    0.7256    0.0000 C   0  0  0  0  0  0  0  0  0  0  0  0
   -3.0714    1.1381    0.0000 F   0  0  0  0  0  0  0  0  0  0  0  0
   -2.3569   -0.0994    0.0000 C   0  0  0  0  0  0  0  0  0  0  0  0
   -1.6425   -0.5119    0.0000 C   0  0  0  0  0  0  0  0  0  0  0  0
   -0.9280   -0.0994    0.0000 C   0  0  0  0  0  0  0  0  0  0  0  0
   -0.1434   -0.3543    0.0000 N   0  0  0  0  0  0  0  0  0  0  0  0
    0.1116   -1.1389    0.0000 C   0  0  0  0  0  0  0  0  0  0  0  0
   -0.4405   -1.7520    0.0000 C   0  0  0  0  0  0  0  0  0  0  0  0
   -1.2474   -1.5805    0.0000 C   0  0  0  0  0  0  0  0  0  0  0  0
   -1.7995   -2.1936    0.0000 C   0  0  0  0  0  0  0  0  0  0  0  0
   -1.5445   -2.9782    0.0000 C   0  0  0  0  0  0  0  0  0  0  0  0
   -2.0966   -3.5913    0.0000 Cl  0  0  0  0  0  0  0  0  0  0  0  0
   -0.7376   -3.1497    0.0000 C   0  0  0  0  0  0  0  0  0  0  0  0
   -0.1855   -2.5366    0.0000 C   0  0  0  0  0  0  0  0  0  0  0  0
  1  2  1  0  0  0  0
  2  3  1  0  0  0  0
  2  4  1  0  0  0  0
  4  5  1  0  0  0  0
  5  6  1  0  0  0  0
  6  7  2  0  0  0  0
  6  8  1  0  0  0  0
  2  9  1  0  0  0  0
  9 10  1  0  0  0  0
 10 11  2  0  0  0  0
 11 12  1  0  0  0  0
 12 13  1  0  0  0  0
 13 14  2  0  0  0  0
 14 15  1  0  0  0  0
 14 16  1  0  0  0  0
 16 17  2  0  0  0  0
 17 18  1  0  0  0  0
 12 18  2  0  0  0  0
 18 19  1  0  0  0  0
 10 19  1  0  0  0  0
 19 20  1  0  0  0  0
 20 21  1  0  0  0  0
 21 22  1  0  0  0  0
 22 23  2  0  0  0  0
 23 24  1  0  0  0  0
 24 25  1  0  0  0  0
 24 26  2  0  0  0  0
 26 27  1  0  0  0  0
 21 27  2  0  0  0  0
M  END
>  <Name>
CHEMBL17677

>  <Target_Uniprot>
P21731

>  <CHEMBL Canonical SMILES>
CC(C)(CCC(=O)O)Cc1nc2cc(F)ccc2n1Cc3ccc(Cl)cc3

>  <PubMed ID>
8487256

$$$$

  Marvin  08031817322D          

 30 33  0  0  0  0            999 V2000
   -0.2810   -0.5009    0.0000 C   0  0  0  0  0  0  0  0  0  0  0  0
   -1.1060   -0.5009    0.0000 S   0  0  0  0  0  0  0  0  0  0  0  0
   -1.9310   -0.5009    0.0000 O   0  0  0  0  0  0  0  0  0  0  0  0
   -1.5185   -1.2154    0.0000 O   0  0  0  0  0  0  0  0  0  0  0  0
   -1.1060    0.3241    0.0000 C   0  0  0  0  0  0  0  0  0  0  0  0
   -1.8204    0.7366    0.0000 C   0  0  0  0  0  0  0  0  0  0  0  0
   -1.8204    1.5616    0.0000 C   0  0  0  0  0  0  0  0  0  0  0  0
   -1.1060    1.9741    0.0000 N   0  0  0  0  0  0  0  0  0  0  0  0
   -0.3915    1.5616    0.0000 C   0  0  0  0  0  0  0  0  0  0  0  0
   -0.3915    0.7366    0.0000 C   0  0  0  0  0  0  0  0  0  0  0  0
    0.3931    0.4817    0.0000 C   0  0  0  0  0  0  0  0  0  0  0  0
    0.6481   -0.3030    0.0000 S   0  0  0  0  0  0  0  0  0  0  0  0
    0.0960   -0.9161    0.0000 C   0  0  0  0  0  0  0  0  0  0  0  0
   -0.7109   -0.7445    0.0000 C   0  0  0  0  0  0  0  0  0  0  0  0
   -1.2630   -1.3576    0.0000 C   0  0  0  0  0  0  0  0  0  0  0  0
   -1.0080   -2.1422    0.0000 C   0  0  0  0  0  0  0  0  0  0  0  0
   -1.5601   -2.7553    0.0000 Cl  0  0  0  0  0  0  0  0  0  0  0  0
   -0.2011   -2.3138    0.0000 C   0  0  0  0  0  0  0  0  0  0  0  0
    0.0539   -3.0984    0.0000 Cl  0  0  0  0  0  0  0  0  0  0  0  0
    0.3510   -1.7007    0.0000 C   0  0  0  0  0  0  0  0  0  0  0  0
    0.8780    1.1491    0.0000 C   0  0  0  0  0  0  0  0  0  0  0  0
    1.6985    1.2353    0.0000 C   0  0  0  0  0  0  0  0  0  0  0  0
    2.1835    0.5679    0.0000 C   0  0  0  0  0  0  0  0  0  0  0  0
    1.8479   -0.1858    0.0000 C   0  0  0  0  0  0  0  0  0  0  0  0
    1.0274   -0.2720    0.0000 O   0  0  0  0  0  0  0  0  0  0  0  0
    2.3328   -0.8532    0.0000 O   0  0  0  0  0  0  0  0  0  0  0  0
    2.0341    1.9890    0.0000 C   0  0  0  0  0  0  0  0  0  0  0  0
    1.5492    2.6564    0.0000 C   0  0  0  0  0  0  0  0  0  0  0  0
    0.7287    2.5702    0.0000 C   0  0  0  0  0  0  0  0  0  0  0  0
    0.3931    1.8165    0.0000 N   0  0  0  0  0  0  0  0  0  0  0  0
  1  2  1  0  0  0  0
  2  3  2  0  0  0  0
  2  4  2  0  0  0  0
  2  5  1  0  0  0  0
  5  6  1  0  0  0  0
  6  7  2  0  0  0  0
  7  8  1  0  0  0  0
  8  9  2  0  0  0  0
  9 10  1  0  0  0  0
  5 10  2  0  0  0  0
 10 11  1  0  0  0  0
 11 12  1  0  0  0  0
 12 13  1  0  0  0  0
 13 14  1  0  0  0  0
 14 15  2  0  0  0  0
 15 16  1  0  0  0  0
 16 17  1  0  0  0  0
 16 18  2  0  0  0  0
 18 19  1  0  0  0  0
 18 20  1  0  0  0  0
 13 20  2  0  0  0  0
 11 21  2  0  0  0  0
 21 22  1  0  0  0  0
 22 23  1  0  0  0  0
 23 24  1  0  0  0  0
 24 25  2  0  0  0  0
 24 26  1  0  0  0  0
 22 27  1  0  0  0  0
 27 28  1  0  0  0  0
 28 29  1  0  0  0  0
 29 30  1  0  0  0  0
  9 30  1  0  0  0  0
 21 30  1  0  0  0  0
M  END
>  <Name>
CHEMBL520480

>  <Target_Uniprot>
P21731

>  <CHEMBL Canonical SMILES>
CS(=O)(=O)c1ccnc2c1c(Sc3ccc(Cl)c(Cl)c3)c4C(CC(=O)O)CCCn24

>  <PubMed ID>
19307115

$$$$

  Marvin  08031817322D          

 30 34  0  0  0  0            999 V2000
    2.3299    1.3965    0.0000 C   0  0  0  0  0  0  0  0  0  0  0  0
    1.6154    1.8090    0.0000 C   0  0  0  0  0  0  0  0  0  0  0  0
    1.6154    2.6340    0.0000 C   0  0  0  0  0  0  0  0  0  0  0  0
    0.9009    3.0465    0.0000 C   0  0  0  0  0  0  0  0  0  0  0  0
    0.1864    2.6340    0.0000 C   0  0  0  0  0  0  0  0  0  0  0  0
   -0.5982    2.8889    0.0000 N   0  0  0  0  0  0  0  0  0  0  0  0
   -1.0831    2.2215    0.0000 C   0  0  0  0  0  0  0  0  0  0  0  0
   -0.5982    1.5540    0.0000 N   0  0  0  0  0  0  0  0  0  0  0  0
   -0.8531    0.7694    0.0000 C   0  0  0  0  0  0  0  0  0  0  0  0
   -0.3011    0.1563    0.0000 C   0  0  0  0  0  0  0  0  0  0  0  0
   -0.5560   -0.6283    0.0000 C   0  0  0  0  0  0  0  0  0  0  0  0
   -1.3736   -0.7391    0.0000 C   0  0  0  0  0  0  0  0  0  0  0  0
   -1.7753   -0.0185    0.0000 C   0  0  0  0  0  0  0  0  0  0  0  0
   -2.6002   -0.0062    0.0000 C   0  0  0  0  0  0  0  0  0  0  0  0
   -3.0234   -0.7144    0.0000 C   0  0  0  0  0  0  0  0  0  0  0  0
   -2.6216   -1.4349    0.0000 C   0  0  0  0  0  0  0  0  0  0  0  0
   -1.7967   -1.4473    0.0000 C   0  0  0  0  0  0  0  0  0  0  0  0
   -1.5068   -2.2197    0.0000 C   0  0  0  0  0  0  0  0  0  0  0  0
   -0.7222   -2.4746    0.0000 O   0  0  0  0  0  0  0  0  0  0  0  0
   -0.0337   -2.0201    0.0000 C   0  0  0  0  0  0  0  0  0  0  0  0
    0.6409   -2.4950    0.0000 C   0  0  0  0  0  0  0  0  0  0  0  0
    1.3895   -2.1482    0.0000 C   0  0  0  0  0  0  0  0  0  0  0  0
    1.4635   -1.3265    0.0000 C   0  0  0  0  0  0  0  0  0  0  0  0
    0.7889   -0.8516    0.0000 C   0  0  0  0  0  0  0  0  0  0  0  0
    0.0403   -1.1984    0.0000 C   0  0  0  0  0  0  0  0  0  0  0  0
    2.2120   -0.9797    0.0000 C   0  0  0  0  0  0  0  0  0  0  0  0
    2.2860   -0.1581    0.0000 O   0  0  0  0  0  0  0  0  0  0  0  0
    2.8867   -1.4546    0.0000 O   0  0  0  0  0  0  0  0  0  0  0  0
    0.1864    1.8090    0.0000 C   0  0  0  0  0  0  0  0  0  0  0  0
    0.9009    1.3965    0.0000 C   0  0  0  0  0  0  0  0  0  0  0  0
  1  2  1  0  0  0  0
  2  3  1  0  0  0  0
  3  4  2  0  0  0  0
  4  5  1  0  0  0  0
  5  6  1  0  0  0  0
  6  7  2  0  0  0  0
  7  8  1  0  0  0  0
  8  9  1  0  0  0  0
  9 10  1  0  0  0  0
 10 11  2  0  0  0  0
 11 12  1  0  0  0  0
 12 13  1  0  0  0  0
 13 14  2  0  0  0  0
 14 15  1  0  0  0  0
 15 16  2  0  0  0  0
 16 17  1  0  0  0  0
 12 17  2  0  0  0  0
 17 18  1  0  0  0  0
 18 19  1  0  0  0  0
 19 20  1  0  0  0  0
 20 21  1  0  0  0  0
 21 22  2  0  0  0  0
 22 23  1  0  0  0  0
 23 24  2  0  0  0  0
 24 25  1  0  0  0  0
 11 25  1  0  0  0  0
 20 25  2  0  0  0  0
 23 26  1  0  0  0  0
 26 27  2  0  0  0  0
 26 28  1  0  0  0  0
  8 29  1  0  0  0  0
  5 29  2  0  0  0  0
 29 30  1  0  0  0  0
  2 30  2  0  0  0  0
M  END
>  <Name>
CHEMBL115111

>  <Target_Uniprot>
P21731

>  <CHEMBL Canonical SMILES>
Cc1ccc2ncn(C\C=C\3/c4ccccc4COc5ccc(cc35)C(=O)O)c2c1

>  <PubMed ID>
1388208

$$$$

  Marvin  08031817322D          

 40 44  0  0  0  0            999 V2000
    0.7031   -1.8713    0.0000 O   0  0  0  0  0  0  0  0  0  0  0  0
    1.1919   -2.5351    0.0000 C   0  0  0  0  0  0  0  0  0  0  0  0
    1.0092   -3.3386    0.0000 O   0  0  0  0  0  0  0  0  0  0  0  0
    1.9806   -2.3209    0.0000 C   0  0  0  0  0  0  0  0  0  0  0  0
    2.3805   -1.6065    0.0000 C   0  0  0  0  0  0  0  0  0  0  0  0
    3.1762   -1.3795    0.0000 C   0  0  0  0  0  0  0  0  0  0  0  0
    3.7297   -1.9930    0.0000 C   0  0  0  0  0  0  0  0  0  0  0  0
    4.5456   -1.8230    0.0000 C   0  0  0  0  0  0  0  0  0  0  0  0
    4.8008   -1.0417    0.0000 C   0  0  0  0  0  0  0  0  0  0  0  0
    4.2493   -0.4287    0.0000 C   0  0  0  0  0  0  0  0  0  0  0  0
    3.4409   -0.6075    0.0000 C   0  0  0  0  0  0  0  0  0  0  0  0
    2.9501    0.0136    0.0000 C   0  0  0  0  0  0  0  0  0  0  0  0
    3.0674    0.8175    0.0000 C   0  0  0  0  0  0  0  0  0  0  0  0
    3.8950    1.1431    0.0000 C   0  0  0  0  0  0  0  0  0  0  0  0
    4.5021    1.8427    0.0000 C   0  0  0  0  0  0  0  0  0  0  0  0
    3.9713    2.5547    0.0000 C   0  0  0  0  0  0  0  0  0  0  0  0
    3.1337    2.1750    0.0000 C   0  0  0  0  0  0  0  0  0  0  0  0
    3.7466    1.8260    0.0000 O   0  0  0  0  0  0  0  0  0  0  0  0
    2.5940    1.4808    0.0000 C   0  0  0  0  0  0  0  0  0  0  0  0
    1.8076    1.4887    0.0000 C   0  0  0  0  0  0  0  0  0  0  0  0
    1.3404    2.1557    0.0000 O   0  0  0  0  0  0  0  0  0  0  0  0
    0.5589    1.9030    0.0000 C   0  0  0  0  0  0  0  0  0  0  0  0
    0.5575    1.0694    0.0000 C   0  0  0  0  0  0  0  0  0  0  0  0
    1.3342    0.8153    0.0000 N   0  0  0  0  0  0  0  0  0  0  0  0
   -0.0523    0.5137    0.0000 C   0  0  0  0  0  0  0  0  0  0  0  0
   -0.0574   -0.3091    0.0000 O   0  0  0  0  0  0  0  0  0  0  0  0
   -0.7979    0.8612    0.0000 N   0  0  0  0  0  0  0  0  0  0  0  0
   -1.5258    0.4743    0.0000 C   0  0  0  0  0  0  0  0  0  0  0  0
   -2.3126    0.7245    0.0000 C   0  0  0  0  0  0  0  0  0  0  0  0
   -3.0278    0.3113    0.0000 C   0  0  0  0  0  0  0  0  0  0  0  0
   -3.8134    0.5616    0.0000 C   0  0  0  0  0  0  0  0  0  0  0  0
   -4.4312    0.0242    0.0000 C   0  0  0  0  0  0  0  0  0  0  0  0
   -4.3184   -0.7850    0.0000 O   0  0  0  0  0  0  0  0  0  0  0  0
   -5.1500    0.4115    0.0000 N   0  0  0  0  0  0  0  0  0  0  0  0
   -5.8586   -0.0294    0.0000 C   0  0  0  0  0  0  0  0  0  0  0  0
   -6.6172    0.2988    0.0000 C   0  0  0  0  0  0  0  0  0  0  0  0
   -7.2870   -0.1942    0.0000 C   0  0  0  0  0  0  0  0  0  0  0  0
   -7.1985   -1.0117    0.0000 C   0  0  0  0  0  0  0  0  0  0  0  0
   -6.4452   -1.3413    0.0000 C   0  0  0  0  0  0  0  0  0  0  0  0
   -5.7738   -0.8505    0.0000 C   0  0  0  0  0  0  0  0  0  0  0  0
  1  2  1  0  0  0  0
  2  3  2  0  0  0  0
  2  4  1  0  0  0  0
  4  5  1  0  0  0  0
  5  6  1  0  0  0  0
  6  7  1  0  0  0  0
  7  8  2  0  0  0  0
  8  9  1  0  0  0  0
  9 10  2  0  0  0  0
 10 11  1  0  0  0  0
  6 11  2  0  0  0  0
 11 12  1  0  0  0  0
 12 13  1  0  0  0  0
 13 14  1  0  0  0  0
 14 15  1  0  0  0  0
 15 16  1  0  0  0  0
 16 17  1  0  0  0  0
 17 18  1  0  0  0  0
 14 18  1  0  0  0  0
 17 19  1  0  0  0  0
 13 19  1  0  0  0  0
 19 20  1  0  0  0  0
 20 21  1  0  0  0  0
 21 22  1  0  0  0  0
 22 23  2  0  0  0  0
 23 24  1  0  0  0  0
 20 24  2  0  0  0  0
 23 25  1  0  0  0  0
 25 26  2  0  0  0  0
 25 27  1  0  0  0  0
 27 28  1  0  0  0  0
 28 29  1  0  0  0  0
 29 30  1  0  0  0  0
 30 31  1  0  0  0  0
 31 32  1  0  0  0  0
 32 33  2  0  0  0  0
 32 34  1  0  0  0  0
 34 35  1  0  0  0  0
 35 36  1  0  0  0  0
 36 37  1  0  0  0  0
 37 38  1  0  0  0  0
 38 39  1  0  0  0  0
 39 40  1  0  0  0  0
 35 40  1  0  0  0  0
M  END
>  <Name>
CHEMBL30377

>  <Target_Uniprot>
P21731

>  <CHEMBL Canonical SMILES>
OC(=O)CCc1ccccc1CC2C3CCC(O3)C2c4occ(n4)C(=O)NCCCCC(=O)NC5CCCCC5

>  <PubMed ID>
8496908

$$$$

  Marvin  08031817322D          

 38 41  0  0  0  0            999 V2000
    0.0000    0.0000    0.0000 Li  0  3  0  0  0  0  0  0  0  0  0  0
    8.2314   -1.8868    0.0000 O   0  5  0  0  0  0  0  0  0  0  0  0
    8.7260   -2.5526    0.0000 C   0  0  0  0  0  0  0  0  0  0  0  0
    8.5400   -3.3599    0.0000 O   0  0  0  0  0  0  0  0  0  0  0  0
    9.5179   -2.3275    0.0000 C   0  0  0  0  0  0  0  0  0  0  0  0
    9.9269   -1.6213    0.0000 C   0  0  0  0  0  0  0  0  0  0  0  0
   10.7147   -1.4018    0.0000 C   0  0  0  0  0  0  0  0  0  0  0  0
   11.2676   -2.0180    0.0000 C   0  0  0  0  0  0  0  0  0  0  0  0
   12.0803   -1.8483    0.0000 C   0  0  0  0  0  0  0  0  0  0  0  0
   12.3358   -1.0637    0.0000 C   0  0  0  0  0  0  0  0  0  0  0  0
   11.7800   -0.4482    0.0000 C   0  0  0  0  0  0  0  0  0  0  0  0
   10.9705   -0.6236    0.0000 C   0  0  0  0  0  0  0  0  0  0  0  0
   10.4716    0.0101    0.0000 C   0  0  0  0  0  0  0  0  0  0  0  0
   10.6249    0.7738    0.0000 C   0  0  0  0  0  0  0  0  0  0  0  0
   11.4922    0.9598    0.0000 C   0  0  0  0  0  0  0  0  0  0  0  0
   12.0330    1.7746    0.0000 C   0  0  0  0  0  0  0  0  0  0  0  0
   11.4777    2.4823    0.0000 C   0  0  0  0  0  0  0  0  0  0  0  0
   10.8126    2.0420    0.0000 C   0  0  0  0  0  0  0  0  0  0  0  0
   11.6371    1.5637    0.0000 O   0  0  0  0  0  0  0  0  0  0  0  0
   10.2193    1.4790    0.0000 C   0  0  0  0  0  0  0  0  0  0  0  0
    9.3432    1.4669    0.0000 C   0  0  0  0  0  0  0  0  0  0  0  0
    8.8500    2.1379    0.0000 O   0  0  0  0  0  0  0  0  0  0  0  0
    8.0628    1.8830    0.0000 C   0  0  0  0  0  0  0  0  0  0  0  0
    8.0636    1.0580    0.0000 C   0  0  0  0  0  0  0  0  0  0  0  0
    8.8470    0.7980    0.0000 N   0  0  0  0  0  0  0  0  0  0  0  0
    7.4669    0.5044    0.0000 C   0  0  0  0  0  0  0  0  0  0  0  0
    7.4702   -0.3134    0.0000 O   0  0  0  0  0  0  0  0  0  0  0  0
    6.7223    0.8401    0.0000 N   0  0  0  0  0  0  0  0  0  0  0  0
    5.9923    0.4673    0.0000 C   0  0  0  0  0  0  0  0  0  0  0  0
    5.2071    0.7014    0.0000 C   0  0  0  0  0  0  0  0  0  0  0  0
    4.4967    0.3048    0.0000 C   0  0  0  0  0  0  0  0  0  0  0  0
    3.7338    0.5502    0.0000 C   0  0  0  0  0  0  0  0  0  0  0  0
    3.0762    0.0976    0.0000 N   0  0  0  0  0  0  0  0  0  0  0  0
    2.3269    0.4330    0.0000 C   0  0  0  0  0  0  0  0  0  0  0  0
    1.6552   -0.0549    0.0000 C   0  0  0  0  0  0  0  0  0  0  0  0
    1.7443   -0.8778    0.0000 C   0  0  0  0  0  0  0  0  0  0  0  0
    2.5018   -1.2115    0.0000 C   0  0  0  0  0  0  0  0  0  0  0  0
    3.1698   -0.7191    0.0000 C   0  0  0  0  0  0  0  0  0  0  0  0
  2  3  1  0  0  0  0
  3  4  2  0  0  0  0
  3  5  1  0  0  0  0
  5  6  1  0  0  0  0
  6  7  1  0  0  0  0
  7  8  1  0  0  0  0
  8  9  2  0  0  0  0
  9 10  1  0  0  0  0
 10 11  2  0  0  0  0
 11 12  1  0  0  0  0
  7 12  2  0  0  0  0
 12 13  1  0  0  0  0
 13 14  1  0  0  0  0
 14 15  1  0  0  0  0
 15 16  1  0  0  0  0
 16 17  1  0  0  0  0
 17 18  1  0  0  0  0
 18 19  1  0  0  0  0
 15 19  1  0  0  0  0
 18 20  1  0  0  0  0
 14 20  1  0  0  0  0
 20 21  1  0  0  0  0
 21 22  1  0  0  0  0
 22 23  1  0  0  0  0
 23 24  2  0  0  0  0
 24 25  1  0  0  0  0
 21 25  2  0  0  0  0
 24 26  1  0  0  0  0
 26 27  2  0  0  0  0
 26 28  1  0  0  0  0
 28 29  1  0  0  0  0
 29 30  1  0  0  0  0
 30 31  1  0  0  0  0
 31 32  1  0  0  0  0
 32 33  1  0  0  0  0
 33 34  1  0  0  0  0
 34 35  1  0  0  0  0
 35 36  1  0  0  0  0
 36 37  1  0  0  0  0
 37 38  1  0  0  0  0
 33 38  1  0  0  0  0
M  CHG  2   1   1   2  -1
M  END
>  <Name>
CHEMBL2368531

>  <Target_Uniprot>
P21731

>  <CHEMBL Canonical SMILES>
[Li+].[O-]C(=O)CCc1ccccc1CC2C3CCC(O3)C2c4occ(n4)C(=O)NCCCCN5CCCCC5

>  <PubMed ID>
8496908

$$$$

  Marvin  08031817322D          

 26 28  0  0  0  0            999 V2000
    1.0046    1.6170    0.0000 C   0  0  0  0  0  0  0  0  0  0  0  0
    1.7191    1.2045    0.0000 C   0  0  0  0  0  0  0  0  0  0  0  0
    2.4336    0.7920    0.0000 C   0  0  0  0  0  0  0  0  0  0  0  0
    2.1316    1.9190    0.0000 C   0  0  0  0  0  0  0  0  0  0  0  0
    2.9566    1.9190    0.0000 C   0  0  0  0  0  0  0  0  0  0  0  0
    3.3691    1.2045    0.0000 O   0  0  0  0  0  0  0  0  0  0  0  0
    3.3691    2.6335    0.0000 O   0  0  0  0  0  0  0  0  0  0  0  0
    1.3066    0.4901    0.0000 C   0  0  0  0  0  0  0  0  0  0  0  0
    0.4816    0.4901    0.0000 C   0  0  0  0  0  0  0  0  0  0  0  0
   -0.0033    1.1575    0.0000 N   0  0  0  0  0  0  0  0  0  0  0  0
   -0.7879    0.9026    0.0000 C   0  0  0  0  0  0  0  0  0  0  0  0
   -1.5024    1.3151    0.0000 C   0  0  0  0  0  0  0  0  0  0  0  0
   -2.2169    0.9026    0.0000 C   0  0  0  0  0  0  0  0  0  0  0  0
   -2.9314    1.3151    0.0000 Cl  0  0  0  0  0  0  0  0  0  0  0  0
   -2.2169    0.0776    0.0000 C   0  0  0  0  0  0  0  0  0  0  0  0
   -1.5024   -0.3349    0.0000 N   0  0  0  0  0  0  0  0  0  0  0  0
   -0.7879    0.0776    0.0000 C   0  0  0  0  0  0  0  0  0  0  0  0
   -0.0033   -0.1774    0.0000 N   0  0  0  0  0  0  0  0  0  0  0  0
    0.2516   -0.9620    0.0000 C   0  0  0  0  0  0  0  0  0  0  0  0
   -0.3004   -1.5751    0.0000 C   0  0  0  0  0  0  0  0  0  0  0  0
   -1.1074   -1.4036    0.0000 C   0  0  0  0  0  0  0  0  0  0  0  0
   -1.6594   -2.0167    0.0000 C   0  0  0  0  0  0  0  0  0  0  0  0
   -1.4045   -2.8013    0.0000 C   0  0  0  0  0  0  0  0  0  0  0  0
   -1.9565   -3.4144    0.0000 Cl  0  0  0  0  0  0  0  0  0  0  0  0
   -0.5975   -2.9728    0.0000 C   0  0  0  0  0  0  0  0  0  0  0  0
   -0.0455   -2.3597    0.0000 C   0  0  0  0  0  0  0  0  0  0  0  0
  1  2  1  0  0  0  0
  2  3  1  0  0  0  0
  2  4  1  0  0  0  0
  4  5  1  0  0  0  0
  5  6  2  0  0  0  0
  5  7  1  0  0  0  0
  2  8  1  0  0  0  0
  8  9  1  0  0  0  0
  9 10  2  0  0  0  0
 10 11  1  0  0  0  0
 11 12  1  0  0  0  0
 12 13  2  0  0  0  0
 13 14  1  0  0  0  0
 13 15  1  0  0  0  0
 15 16  2  0  0  0  0
 16 17  1  0  0  0  0
 11 17  2  0  0  0  0
 17 18  1  0  0  0  0
  9 18  1  0  0  0  0
 18 19  1  0  0  0  0
 19 20  1  0  0  0  0
 20 21  1  0  0  0  0
 21 22  2  0  0  0  0
 22 23  1  0  0  0  0
 23 24  1  0  0  0  0
 23 25  2  0  0  0  0
 25 26  1  0  0  0  0
 20 26  2  0  0  0  0
M  END
>  <Name>
CHEMBL18197

>  <Target_Uniprot>
P21731

>  <CHEMBL Canonical SMILES>
CC(C)(CC(=O)O)Cc1nc2cc(Cl)cnc2n1Cc3ccc(Cl)cc3

>  <PubMed ID>
8487256

$$$$

  Marvin  08031817322D          

 32 34  0  0  0  0            999 V2000
    4.3761   -2.8617    0.0000 O   0  0  0  0  0  0  0  0  0  0  0  0
    4.3761   -2.0367    0.0000 C   0  0  0  0  0  0  0  0  0  0  0  0
    5.0906   -1.6242    0.0000 O   0  0  0  0  0  0  0  0  0  0  0  0
    3.6617   -1.6242    0.0000 C   0  0  0  0  0  0  0  0  0  0  0  0
    2.9472   -2.0367    0.0000 C   0  0  0  0  0  0  0  0  0  0  0  0
    2.2327   -1.6242    0.0000 C   0  0  0  0  0  0  0  0  0  0  0  0
    1.5183   -2.0367    0.0000 C   0  0  0  0  0  0  0  0  0  0  0  0
    0.8038   -1.6242    0.0000 C   0  0  0  0  0  0  0  0  0  0  0  0
    0.0893   -2.0367    0.0000 C   0  0  0  0  0  0  0  0  0  0  0  0
   -0.6252   -1.6242    0.0000 C   0  0  0  0  0  0  0  0  0  0  0  0
   -1.3396   -2.0367    0.0000 C   0  0  0  0  0  0  0  0  0  0  0  0
   -1.3396   -2.8617    0.0000 C   0  0  0  0  0  0  0  0  0  0  0  0
   -0.6252   -3.2742    0.0000 N   0  0  0  0  0  0  0  0  0  0  0  0
    0.0893   -2.8617    0.0000 C   0  0  0  0  0  0  0  0  0  0  0  0
    0.8038   -0.7992    0.0000 C   0  0  0  0  0  0  0  0  0  0  0  0
    1.5183   -0.3867    0.0000 C   0  0  0  0  0  0  0  0  0  0  0  0
    1.5183    0.4383    0.0000 C   0  0  0  0  0  0  0  0  0  0  0  0
    0.8038    0.8508    0.0000 C   0  0  0  0  0  0  0  0  0  0  0  0
    0.0893    0.4383    0.0000 C   0  0  0  0  0  0  0  0  0  0  0  0
   -0.6252    0.8508    0.0000 C   0  0  0  0  0  0  0  0  0  0  0  0
   -0.6252    1.6758    0.0000 N   0  0  0  0  0  0  0  0  0  0  0  0
   -1.3396    2.0883    0.0000 S   0  0  0  0  0  0  0  0  0  0  0  0
   -1.7521    1.3738    0.0000 O   0  0  0  0  0  0  0  0  0  0  0  0
   -0.9271    2.8028    0.0000 O   0  0  0  0  0  0  0  0  0  0  0  0
   -2.0541    2.5008    0.0000 C   0  0  0  0  0  0  0  0  0  0  0  0
   -2.0541    3.3258    0.0000 C   0  0  0  0  0  0  0  0  0  0  0  0
   -2.7686    3.7383    0.0000 C   0  0  0  0  0  0  0  0  0  0  0  0
   -3.4830    3.3258    0.0000 C   0  0  0  0  0  0  0  0  0  0  0  0
   -4.1975    3.7383    0.0000 Cl  0  0  0  0  0  0  0  0  0  0  0  0
   -3.4830    2.5008    0.0000 C   0  0  0  0  0  0  0  0  0  0  0  0
   -2.7686    2.0883    0.0000 C   0  0  0  0  0  0  0  0  0  0  0  0
    0.0893   -0.3867    0.0000 C   0  0  0  0  0  0  0  0  0  0  0  0
  1  2  1  0  0  0  0
  2  3  2  0  0  0  0
  2  4  1  0  0  0  0
  4  5  1  0  0  0  0
  5  6  1  0  0  0  0
  6  7  1  0  0  0  0
  7  8  2  0  0  0  0
  8  9  1  0  0  0  0
  9 10  1  0  0  0  0
 10 11  2  0  0  0  0
 11 12  1  0  0  0  0
 12 13  2  0  0  0  0
 13 14  1  0  0  0  0
  9 14  2  0  0  0  0
  8 15  1  0  0  0  0
 15 16  1  0  0  0  0
 16 17  2  0  0  0  0
 17 18  1  0  0  0  0
 18 19  2  0  0  0  0
 19 20  1  0  0  0  0
 20 21  1  0  0  0  0
 21 22  1  0  0  0  0
 22 23  2  0  0  0  0
 22 24  2  0  0  0  0
 22 25  1  0  0  0  0
 25 26  1  0  0  0  0
 26 27  2  0  0  0  0
 27 28  1  0  0  0  0
 28 29  1  0  0  0  0
 28 30  2  0  0  0  0
 30 31  1  0  0  0  0
 25 31  2  0  0  0  0
 19 32  1  0  0  0  0
 15 32  2  0  0  0  0
M  END
>  <Name>
CHEMBL127683

>  <Target_Uniprot>
P21731

>  <CHEMBL Canonical SMILES>
OC(=O)CCC\C=C(\c1cccnc1)/c2cccc(CNS(=O)(=O)c3ccc(Cl)cc3)c2

>  <PubMed ID>
8289199

$$$$

  Marvin  08031817322D          

 32 35  0  0  0  0            999 V2000
   -0.1239   -4.8469    0.0000 O   0  0  0  0  0  0  0  0  0  0  0  0
   -0.7430   -4.2997    0.0000 C   0  0  0  0  0  0  0  0  0  0  0  0
   -1.5647   -4.3842    0.0000 O   0  0  0  0  0  0  0  0  0  0  0  0
   -0.4591   -3.5280    0.0000 C   0  0  0  0  0  0  0  0  0  0  0  0
    0.2962   -3.2241    0.0000 C   0  0  0  0  0  0  0  0  0  0  0  0
    0.6474   -2.4872    0.0000 C   0  0  0  0  0  0  0  0  0  0  0  0
    1.4539   -2.2871    0.0000 C   0  0  0  0  0  0  0  0  0  0  0  0
    2.0096   -2.9002    0.0000 C   0  0  0  0  0  0  0  0  0  0  0  0
    2.8275   -2.7294    0.0000 C   0  0  0  0  0  0  0  0  0  0  0  0
    3.0821   -1.9495    0.0000 C   0  0  0  0  0  0  0  0  0  0  0  0
    2.5304   -1.3370    0.0000 C   0  0  0  0  0  0  0  0  0  0  0  0
    1.7210   -1.5172    0.0000 C   0  0  0  0  0  0  0  0  0  0  0  0
    1.2270   -0.9013    0.0000 C   0  0  0  0  0  0  0  0  0  0  0  0
    1.3696   -0.0942    0.0000 C   0  0  0  0  0  0  0  0  0  0  0  0
    2.1963    0.2403    0.0000 C   0  0  0  0  0  0  0  0  0  0  0  0
    2.8077    0.9409    0.0000 C   0  0  0  0  0  0  0  0  0  0  0  0
    2.2760    1.6524    0.0000 C   0  0  0  0  0  0  0  0  0  0  0  0
    1.4318    1.2637    0.0000 C   0  0  0  0  0  0  0  0  0  0  0  0
    2.0397    0.9215    0.0000 O   0  0  0  0  0  0  0  0  0  0  0  0
    0.8785    0.5647    0.0000 C   0  0  0  0  0  0  0  0  0  0  0  0
    0.0643    0.6487    0.0000 C   0  0  0  0  0  0  0  0  0  0  0  0
   -0.2991    1.3766    0.0000 N   0  0  0  0  0  0  0  0  0  0  0  0
   -1.1148    1.3493    0.0000 N   0  0  0  0  0  0  0  0  0  0  0  0
   -1.5367    2.0468    0.0000 C   0  0  0  0  0  0  0  0  0  0  0  0
   -1.1430    2.7643    0.0000 O   0  0  0  0  0  0  0  0  0  0  0  0
   -2.3547    2.0441    0.0000 N   0  0  0  0  0  0  0  0  0  0  0  0
   -2.8399    2.7232    0.0000 C   0  0  0  0  0  0  0  0  0  0  0  0
   -2.4283    3.4390    0.0000 C   0  0  0  0  0  0  0  0  0  0  0  0
   -2.8422    4.1603    0.0000 C   0  0  0  0  0  0  0  0  0  0  0  0
   -3.6648    4.1653    0.0000 C   0  0  0  0  0  0  0  0  0  0  0  0
   -4.0783    3.4540    0.0000 C   0  0  0  0  0  0  0  0  0  0  0  0
   -3.6668    2.7312    0.0000 C   0  0  0  0  0  0  0  0  0  0  0  0
  1  2  1  0  0  0  0
  2  3  2  0  0  0  0
  2  4  1  0  0  0  0
  4  5  1  0  0  0  0
  5  6  1  0  0  0  0
  6  7  1  0  0  0  0
  7  8  1  0  0  0  0
  8  9  2  0  0  0  0
  9 10  1  0  0  0  0
 10 11  2  0  0  0  0
 11 12  1  0  0  0  0
  7 12  2  0  0  0  0
 12 13  1  0  0  0  0
 13 14  1  0  0  0  0
 14 15  1  0  0  0  0
 15 16  1  0  0  0  0
 16 17  1  0  0  0  0
 17 18  1  0  0  0  0
 18 19  1  0  0  0  0
 15 19  1  0  0  0  0
 18 20  1  0  0  0  0
 14 20  1  0  0  0  0
 20 21  1  0  0  0  0
 21 22  2  0  0  0  0
 22 23  1  0  0  0  0
 23 24  1  0  0  0  0
 24 25  2  0  0  0  0
 24 26  1  0  0  0  0
 26 27  1  0  0  0  0
 27 28  1  0  0  0  0
 28 29  2  0  0  0  0
 29 30  1  0  0  0  0
 30 31  2  0  0  0  0
 31 32  1  0  0  0  0
 27 32  2  0  0  0  0
M  END
>  <Name>
CHEMBL95867

>  <Target_Uniprot>
P21731

>  <CHEMBL Canonical SMILES>
OC(=O)CCCc1ccccc1CC2C3CCC(O3)C2\C=N\NC(=O)Nc4ccccc4

>  <PubMed ID>
1910091

$$$$

  Marvin  08031817322D          

 27 29  0  0  0  0            999 V2000
   -1.6385   -4.0435    0.0000 C   0  0  0  0  0  0  0  0  0  0  0  0
   -1.8935   -3.2589    0.0000 O   0  0  0  0  0  0  0  0  0  0  0  0
   -1.3415   -2.6458    0.0000 C   0  0  0  0  0  0  0  0  0  0  0  0
   -0.5345   -2.8173    0.0000 C   0  0  0  0  0  0  0  0  0  0  0  0
    0.0176   -2.2042    0.0000 C   0  0  0  0  0  0  0  0  0  0  0  0
   -0.2374   -1.4196    0.0000 C   0  0  0  0  0  0  0  0  0  0  0  0
    0.3146   -0.8065    0.0000 C   0  0  0  0  0  0  0  0  0  0  0  0
    0.0597   -0.0219    0.0000 N   0  0  0  0  0  0  0  0  0  0  0  0
    0.5446    0.6456    0.0000 C   0  0  0  0  0  0  0  0  0  0  0  0
    1.3696    0.6456    0.0000 C   0  0  0  0  0  0  0  0  0  0  0  0
    1.7821    1.3601    0.0000 C   0  0  0  0  0  0  0  0  0  0  0  0
    1.0677    1.7726    0.0000 C   0  0  0  0  0  0  0  0  0  0  0  0
    2.4966    0.9476    0.0000 C   0  0  0  0  0  0  0  0  0  0  0  0
    2.1946    2.0745    0.0000 C   0  0  0  0  0  0  0  0  0  0  0  0
    3.0196    2.0745    0.0000 C   0  0  0  0  0  0  0  0  0  0  0  0
    3.4321    1.3601    0.0000 O   0  0  0  0  0  0  0  0  0  0  0  0
    3.4321    2.7890    0.0000 O   0  0  0  0  0  0  0  0  0  0  0  0
    0.0597    1.3130    0.0000 N   0  0  0  0  0  0  0  0  0  0  0  0
   -0.7249    1.0581    0.0000 C   0  0  0  0  0  0  0  0  0  0  0  0
   -1.4394    1.4706    0.0000 C   0  0  0  0  0  0  0  0  0  0  0  0
   -2.1539    1.0581    0.0000 C   0  0  0  0  0  0  0  0  0  0  0  0
   -2.8683    1.4706    0.0000 Cl  0  0  0  0  0  0  0  0  0  0  0  0
   -2.1539    0.2331    0.0000 C   0  0  0  0  0  0  0  0  0  0  0  0
   -1.4394   -0.1794    0.0000 C   0  0  0  0  0  0  0  0  0  0  0  0
   -0.7249    0.2331    0.0000 C   0  0  0  0  0  0  0  0  0  0  0  0
   -1.0444   -1.2480    0.0000 C   0  0  0  0  0  0  0  0  0  0  0  0
   -1.5964   -1.8611    0.0000 C   0  0  0  0  0  0  0  0  0  0  0  0
  1  2  1  0  0  0  0
  2  3  1  0  0  0  0
  3  4  1  0  0  0  0
  4  5  2  0  0  0  0
  5  6  1  0  0  0  0
  6  7  1  0  0  0  0
  7  8  1  0  0  0  0
  8  9  1  0  0  0  0
  9 10  1  0  0  0  0
 10 11  1  0  0  0  0
 11 12  1  0  0  0  0
 11 13  1  0  0  0  0
 11 14  1  0  0  0  0
 14 15  1  0  0  0  0
 15 16  2  0  0  0  0
 15 17  1  0  0  0  0
  9 18  2  0  0  0  0
 18 19  1  0  0  0  0
 19 20  1  0  0  0  0
 20 21  2  0  0  0  0
 21 22  1  0  0  0  0
 21 23  1  0  0  0  0
 23 24  2  0  0  0  0
 24 25  1  0  0  0  0
  8 25  1  0  0  0  0
 19 25  2  0  0  0  0
  6 26  2  0  0  0  0
 26 27  1  0  0  0  0
  3 27  2  0  0  0  0
M  END
>  <Name>
CHEMBL418552

>  <Target_Uniprot>
P21731

>  <CHEMBL Canonical SMILES>
COc1ccc(Cn2c(CC(C)(C)CC(=O)O)nc3cc(Cl)ccc23)cc1

>  <PubMed ID>
8487256

$$$$

  Marvin  08031817322D          

 27 28  0  0  0  0            999 V2000
    0.5557   -2.7042    0.0000 C   0  0  0  0  0  0  0  0  0  0  0  0
    0.5557   -1.8792    0.0000 C   0  0  0  0  0  0  0  0  0  0  0  0
    1.2702   -1.4667    0.0000 C   0  0  0  0  0  0  0  0  0  0  0  0
    1.9846   -1.8792    0.0000 C   0  0  0  0  0  0  0  0  0  0  0  0
    1.2702   -0.6417    0.0000 C   0  0  0  0  0  0  0  0  0  0  0  0
    1.9846   -0.2292    0.0000 C   0  0  0  0  0  0  0  0  0  0  0  0
    2.6991   -0.6417    0.0000 O   0  0  0  0  0  0  0  0  0  0  0  0
    0.5557   -0.2292    0.0000 C   0  0  0  0  0  0  0  0  0  0  0  0
    0.5557    0.5958    0.0000 C   0  0  0  0  0  0  0  0  0  0  0  0
   -0.1588   -0.6417    0.0000 C   0  0  0  0  0  0  0  0  0  0  0  0
   -0.8732   -0.2292    0.0000 C   0  0  0  0  0  0  0  0  0  0  0  0
   -0.8732    0.5958    0.0000 C   0  0  0  0  0  0  0  0  0  0  0  0
   -0.1588    1.0083    0.0000 C   0  0  0  0  0  0  0  0  0  0  0  0
   -0.1588    1.8333    0.0000 C   0  0  0  0  0  0  0  0  0  0  0  0
    0.5557    2.2458    0.0000 C   0  0  0  0  0  0  0  0  0  0  0  0
    0.5557    3.0708    0.0000 C   0  0  0  0  0  0  0  0  0  0  0  0
    1.2702    3.4833    0.0000 C   0  0  0  0  0  0  0  0  0  0  0  0
    1.9846    3.0708    0.0000 O   0  0  0  0  0  0  0  0  0  0  0  0
    1.2702    4.3083    0.0000 O   0  0  0  0  0  0  0  0  0  0  0  0
   -1.5877   -0.6417    0.0000 C   0  0  0  0  0  0  0  0  0  0  0  0
   -2.3022   -0.2292    0.0000 C   0  0  0  0  0  0  0  0  0  0  0  0
   -3.0167   -0.6417    0.0000 C   0  0  0  0  0  0  0  0  0  0  0  0
   -3.0167   -1.4667    0.0000 C   0  0  0  0  0  0  0  0  0  0  0  0
   -2.3022   -1.8792    0.0000 C   0  0  0  0  0  0  0  0  0  0  0  0
   -1.5877   -1.4667    0.0000 C   0  0  0  0  0  0  0  0  0  0  0  0
   -0.1588   -1.4667    0.0000 C   0  0  0  0  0  0  0  0  0  0  0  0
   -0.8732   -1.8792    0.0000 O   0  0  0  0  0  0  0  0  0  0  0  0
  1  2  1  0  0  0  0
  2  3  1  0  0  0  0
  3  4  1  0  0  0  0
  3  5  2  0  0  0  0
  5  6  1  0  0  0  0
  6  7  2  0  0  0  0
  5  8  1  0  0  0  0
  8  9  1  0  0  0  0
  8 10  2  0  0  0  0
 10 11  1  0  0  0  0
 11 12  1  0  0  0  0
 12 13  1  0  0  0  0
 13 14  1  0  0  0  0
 14 15  1  0  0  0  0
 15 16  1  0  0  0  0
 16 17  1  0  0  0  0
 17 18  2  0  0  0  0
 17 19  1  0  0  0  0
 11 20  1  0  0  0  0
 20 21  1  0  0  0  0
 21 22  2  0  0  0  0
 22 23  1  0  0  0  0
 23 24  2  0  0  0  0
 24 25  1  0  0  0  0
 20 25  2  0  0  0  0
 10 26  1  0  0  0  0
  2 26  2  0  0  0  0
 26 27  1  0  0  0  0
M  END
>  <Name>
CHEMBL302514

>  <Target_Uniprot>
P21731

>  <CHEMBL Canonical SMILES>
Cc1c(C)c(C=O)c(C)c(C(CCCCCC(=O)O)c2ccccc2)c1O

>  <PubMed ID>
1535377

$$$$

  Marvin  08031817322D          

 30 32  0  0  0  0            999 V2000
   -3.2926   -3.7710    0.0000 O   0  0  0  0  0  0  0  0  0  0  0  0
   -2.5781   -4.1835    0.0000 C   0  0  0  0  0  0  0  0  0  0  0  0
   -2.5781   -5.0085    0.0000 O   0  0  0  0  0  0  0  0  0  0  0  0
   -1.8637   -3.7710    0.0000 C   0  0  0  0  0  0  0  0  0  0  0  0
   -1.8637   -2.9460    0.0000 C   0  0  0  0  0  0  0  0  0  0  0  0
   -1.1492   -2.5335    0.0000 C   0  0  0  0  0  0  0  0  0  0  0  0
   -1.1492   -1.7085    0.0000 C   0  0  0  0  0  0  0  0  0  0  0  0
   -0.4347   -1.2960    0.0000 O   0  0  0  0  0  0  0  0  0  0  0  0
   -0.4347   -0.4710    0.0000 N   0  0  0  0  0  0  0  0  0  0  0  0
    0.2798   -0.0585    0.0000 C   0  0  0  0  0  0  0  0  0  0  0  0
    0.2798    0.7665    0.0000 C   0  0  0  0  0  0  0  0  0  0  0  0
   -0.4347    1.1790    0.0000 C   0  0  0  0  0  0  0  0  0  0  0  0
   -0.4347    2.0040    0.0000 C   0  0  0  0  0  0  0  0  0  0  0  0
    0.2798    2.4165    0.0000 C   0  0  0  0  0  0  0  0  0  0  0  0
    0.2798    3.2415    0.0000 C   0  0  0  0  0  0  0  0  0  0  0  0
   -0.4347    3.6540    0.0000 C   0  0  0  0  0  0  0  0  0  0  0  0
   -0.4347    4.4790    0.0000 F   0  0  0  0  0  0  0  0  0  0  0  0
   -1.1492    3.2415    0.0000 C   0  0  0  0  0  0  0  0  0  0  0  0
   -1.1492    2.4165    0.0000 C   0  0  0  0  0  0  0  0  0  0  0  0
    0.9942    1.1790    0.0000 N   0  0  0  0  0  0  0  0  0  0  0  0
    1.7479    0.8435    0.0000 C   0  0  0  0  0  0  0  0  0  0  0  0
    2.2999    1.4566    0.0000 C   0  0  0  0  0  0  0  0  0  0  0  0
    1.8874    2.1710    0.0000 N   0  0  0  0  0  0  0  0  0  0  0  0
    1.0805    1.9995    0.0000 C   0  0  0  0  0  0  0  0  0  0  0  0
    0.9942   -0.4710    0.0000 C   0  0  0  0  0  0  0  0  0  0  0  0
    0.9942   -1.2960    0.0000 C   0  0  0  0  0  0  0  0  0  0  0  0
    1.7087   -1.7085    0.0000 C   0  0  0  0  0  0  0  0  0  0  0  0
    2.4232   -1.2960    0.0000 C   0  0  0  0  0  0  0  0  0  0  0  0
    2.4232   -0.4710    0.0000 C   0  0  0  0  0  0  0  0  0  0  0  0
    1.7087   -0.0585    0.0000 C   0  0  0  0  0  0  0  0  0  0  0  0
  1  2  1  0  0  0  0
  2  3  2  0  0  0  0
  2  4  1  0  0  0  0
  4  5  1  0  0  0  0
  5  6  1  0  0  0  0
  6  7  1  0  0  0  0
  7  8  1  0  0  0  0
  8  9  1  0  0  0  0
  9 10  2  0  0  0  0
 10 11  1  0  0  0  0
 11 12  1  0  0  0  0
 12 13  1  0  0  0  0
 13 14  1  0  0  0  0
 14 15  2  0  0  0  0
 15 16  1  0  0  0  0
 16 17  1  0  0  0  0
 16 18  2  0  0  0  0
 18 19  1  0  0  0  0
 13 19  2  0  0  0  0
 11 20  1  0  0  0  0
 20 21  1  0  0  0  0
 21 22  2  0  0  0  0
 22 23  1  0  0  0  0
 23 24  2  0  0  0  0
 20 24  1  0  0  0  0
 10 25  1  0  0  0  0
 25 26  1  0  0  0  0
 26 27  1  0  0  0  0
 27 28  1  0  0  0  0
 28 29  1  0  0  0  0
 29 30  1  0  0  0  0
 25 30  1  0  0  0  0
M  END
>  <Name>
CHEMBL120041

>  <Target_Uniprot>
P21731

>  <CHEMBL Canonical SMILES>
OC(=O)CCCCO\N=C(\C(Cc1ccc(F)cc1)n2ccnc2)/C3CCCCC3

>  <PubMed ID>
7932586

$$$$

  Marvin  08031817322D          

 35 38  0  0  0  0            999 V2000
    2.7281    1.1598    0.0000 O   0  0  0  0  0  0  0  0  0  0  0  0
    2.7281    1.9848    0.0000 C   0  0  0  0  0  0  0  0  0  0  0  0
    3.4425    2.3973    0.0000 O   0  0  0  0  0  0  0  0  0  0  0  0
    2.0136    2.3973    0.0000 C   0  0  0  0  0  0  0  0  0  0  0  0
    2.0136    3.2223    0.0000 C   0  0  0  0  0  0  0  0  0  0  0  0
    1.2991    3.6348    0.0000 C   0  0  0  0  0  0  0  0  0  0  0  0
    0.5847    3.2223    0.0000 C   0  0  0  0  0  0  0  0  0  0  0  0
   -0.0603    3.7367    0.0000 O   0  0  0  0  0  0  0  0  0  0  0  0
   -0.8647    3.5531    0.0000 C   0  0  0  0  0  0  0  0  0  0  0  0
   -1.2226    2.8098    0.0000 C   0  0  0  0  0  0  0  0  0  0  0  0
   -2.0453    2.8715    0.0000 C   0  0  0  0  0  0  0  0  0  0  0  0
   -2.5100    2.1899    0.0000 C   0  0  0  0  0  0  0  0  0  0  0  0
   -2.1521    1.4466    0.0000 C   0  0  0  0  0  0  0  0  0  0  0  0
   -1.3294    1.3849    0.0000 C   0  0  0  0  0  0  0  0  0  0  0  0
   -0.8647    2.0665    0.0000 C   0  0  0  0  0  0  0  0  0  0  0  0
   -0.0603    1.8830    0.0000 C   0  0  0  0  0  0  0  0  0  0  0  0
    0.1232    1.0787    0.0000 S   0  0  0  0  0  0  0  0  0  0  0  0
   -0.4815    0.5175    0.0000 C   0  0  0  0  0  0  0  0  0  0  0  0
   -0.2980   -0.2868    0.0000 C   0  0  0  0  0  0  0  0  0  0  0  0
   -0.9027   -0.8479    0.0000 N   0  0  0  0  0  0  0  0  0  0  0  0
   -0.7191   -1.6523    0.0000 S   0  0  0  0  0  0  0  0  0  0  0  0
    0.0852   -1.4687    0.0000 O   0  0  0  0  0  0  0  0  0  0  0  0
   -1.5235   -1.8358    0.0000 O   0  0  0  0  0  0  0  0  0  0  0  0
   -0.5356   -2.4566    0.0000 C   0  0  0  0  0  0  0  0  0  0  0  0
   -1.1403   -3.0177    0.0000 C   0  0  0  0  0  0  0  0  0  0  0  0
   -0.9568   -3.8220    0.0000 C   0  0  0  0  0  0  0  0  0  0  0  0
   -0.1684   -4.0652    0.0000 C   0  0  0  0  0  0  0  0  0  0  0  0
    0.4364   -3.5041    0.0000 C   0  0  0  0  0  0  0  0  0  0  0  0
    0.2528   -2.6998    0.0000 C   0  0  0  0  0  0  0  0  0  0  0  0
    0.0152   -4.8695    0.0000 C   0  0  0  0  0  0  0  0  0  0  0  0
    0.8195   -4.6859    0.0000 F   0  0  0  0  0  0  0  0  0  0  0  0
   -0.7891   -5.0531    0.0000 F   0  0  0  0  0  0  0  0  0  0  0  0
    0.1988   -5.6738    0.0000 F   0  0  0  0  0  0  0  0  0  0  0  0
    0.5847    2.3973    0.0000 C   0  0  0  0  0  0  0  0  0  0  0  0
    1.2991    1.9848    0.0000 C   0  0  0  0  0  0  0  0  0  0  0  0
  1  2  1  0  0  0  0
  2  3  2  0  0  0  0
  2  4  1  0  0  0  0
  4  5  1  0  0  0  0
  5  6  2  0  0  0  0
  6  7  1  0  0  0  0
  7  8  1  0  0  0  0
  8  9  1  0  0  0  0
  9 10  1  0  0  0  0
 10 11  1  0  0  0  0
 11 12  2  0  0  0  0
 12 13  1  0  0  0  0
 13 14  2  0  0  0  0
 14 15  1  0  0  0  0
 10 15  2  0  0  0  0
 15 16  1  0  0  0  0
 16 17  1  0  0  0  0
 17 18  1  0  0  0  0
 18 19  1  0  0  0  0
 19 20  1  0  0  0  0
 20 21  1  0  0  0  0
 21 22  2  0  0  0  0
 21 23  2  0  0  0  0
 21 24  1  0  0  0  0
 24 25  1  0  0  0  0
 25 26  2  0  0  0  0
 26 27  1  0  0  0  0
 27 28  2  0  0  0  0
 28 29  1  0  0  0  0
 24 29  2  0  0  0  0
 27 30  1  0  0  0  0
 30 31  1  0  0  0  0
 30 32  1  0  0  0  0
 30 33  1  0  0  0  0
 16 34  1  0  0  0  0
  7 34  2  0  0  0  0
 34 35  1  0  0  0  0
  4 35  2  0  0  0  0
M  END
>  <Name>
CHEMBL114363

>  <Target_Uniprot>
P21731

>  <CHEMBL Canonical SMILES>
OC(=O)c1ccc2OCc3ccccc3C(SCCNS(=O)(=O)c4ccc(cc4)C(F)(F)F)c2c1

>  <PubMed ID>
1388207

$$$$

  Marvin  08031817322D          

 33 36  0  0  0  0            999 V2000
   -3.5321   -5.4555    0.0000 O   0  0  0  0  0  0  0  0  0  0  0  0
   -3.5935   -4.6341    0.0000 C   0  0  0  0  0  0  0  0  0  0  0  0
   -3.0169   -4.0485    0.0000 C   0  0  0  0  0  0  0  0  0  0  0  0
   -3.0077   -3.2290    0.0000 C   0  0  0  0  0  0  0  0  0  0  0  0
   -2.3939   -2.6892    0.0000 C   0  0  0  0  0  0  0  0  0  0  0  0
   -2.4049   -1.8750    0.0000 C   0  0  0  0  0  0  0  0  0  0  0  0
   -1.7898   -1.3429    0.0000 N   0  0  0  0  0  0  0  0  0  0  0  0
   -2.0202   -0.5482    0.0000 C   0  0  0  0  0  0  0  0  0  0  0  0
   -2.7821   -0.1915    0.0000 O   0  0  0  0  0  0  0  0  0  0  0  0
   -1.2939   -0.1001    0.0000 C   0  0  0  0  0  0  0  0  0  0  0  0
   -0.5127   -0.3514    0.0000 C   0  0  0  0  0  0  0  0  0  0  0  0
   -0.0305    0.3161    0.0000 O   0  0  0  0  0  0  0  0  0  0  0  0
   -0.4927    1.0100    0.0000 C   0  0  0  0  0  0  0  0  0  0  0  0
   -1.2796    0.7401    0.0000 N   0  0  0  0  0  0  0  0  0  0  0  0
   -0.0828    1.8362    0.0000 C   0  0  0  0  0  0  0  0  0  0  0  0
    0.7248    2.0234    0.0000 C   0  0  0  0  0  0  0  0  0  0  0  0
    1.2887    1.4291    0.0000 C   0  0  0  0  0  0  0  0  0  0  0  0
    1.3157    0.6497    0.0000 C   0  0  0  0  0  0  0  0  0  0  0  0
    0.5522    0.3632    0.0000 C   0  0  0  0  0  0  0  0  0  0  0  0
    0.4243   -0.4544    0.0000 C   0  0  0  0  0  0  0  0  0  0  0  0
    1.0650   -0.9665    0.0000 C   0  0  0  0  0  0  0  0  0  0  0  0
    1.8362   -0.6614    0.0000 C   0  0  0  0  0  0  0  0  0  0  0  0
    1.9597    0.1558    0.0000 C   0  0  0  0  0  0  0  0  0  0  0  0
    2.6904    0.5448    0.0000 C   0  0  0  0  0  0  0  0  0  0  0  0
    3.4025    0.1256    0.0000 C   0  0  0  0  0  0  0  0  0  0  0  0
    4.1505    0.4563    0.0000 C   0  0  0  0  0  0  0  0  0  0  0  0
    4.1291    1.2760    0.0000 O   0  0  0  0  0  0  0  0  0  0  0  0
    4.7498   -0.1035    0.0000 O   0  0  0  0  0  0  0  0  0  0  0  0
    0.7713    2.9259    0.0000 C   0  0  0  0  0  0  0  0  0  0  0  0
    0.0902    3.6636    0.0000 C   0  0  0  0  0  0  0  0  0  0  0  0
   -0.7206    3.3387    0.0000 C   0  0  0  0  0  0  0  0  0  0  0  0
   -0.4448    2.5799    0.0000 C   0  0  0  0  0  0  0  0  0  0  0  0
    0.2481    3.2167    0.0000 O   0  0  0  0  0  0  0  0  0  0  0  0
  1  2  1  0  0  0  0
  2  3  1  0  0  0  0
  3  4  1  0  0  0  0
  4  5  1  0  0  0  0
  5  6  1  0  0  0  0
  6  7  1  0  0  0  0
  7  8  1  0  0  0  0
  8  9  2  0  0  0  0
  8 10  1  0  0  0  0
 10 11  2  0  0  0  0
 11 12  1  0  0  0  0
 12 13  1  0  0  0  0
 13 14  2  0  0  0  0
 10 14  1  0  0  0  0
 13 15  1  0  0  0  0
 15 16  1  0  0  0  0
 16 17  1  0  0  0  0
 17 18  1  0  0  0  0
 18 19  1  0  0  0  0
 19 20  2  0  0  0  0
 20 21  1  0  0  0  0
 21 22  2  0  0  0  0
 22 23  1  0  0  0  0
 18 23  2  0  0  0  0
 23 24  1  0  0  0  0
 24 25  1  0  0  0  0
 25 26  1  0  0  0  0
 26 27  2  0  0  0  0
 26 28  1  0  0  0  0
 16 29  1  0  0  0  0
 29 30  1  0  0  0  0
 30 31  1  0  0  0  0
 31 32  1  0  0  0  0
 15 32  1  0  0  0  0
 32 33  1  0  0  0  0
 29 33  1  0  0  0  0
M  END
>  <Name>
CHEMBL30727

>  <Target_Uniprot>
P21731

>  <CHEMBL Canonical SMILES>
OCCCCCNC(=O)c1coc(n1)C2C(Cc3ccccc3CCC(=O)O)C4CCC2O4

>  <PubMed ID>
8496908

$$$$

  Marvin  08031817322D          

 31 34  0  0  0  0            999 V2000
   -0.2162   -3.9942    0.0000 C   0  0  0  0  0  0  0  0  0  0  0  0
   -0.7369   -3.3543    0.0000 C   0  0  0  0  0  0  0  0  0  0  0  0
   -1.2148   -2.6828    0.0000 C   0  0  0  0  0  0  0  0  0  0  0  0
   -1.4084   -3.8336    0.0000 C   0  0  0  0  0  0  0  0  0  0  0  0
   -0.1329   -2.7959    0.0000 N   0  0  0  0  0  0  0  0  0  0  0  0
   -0.1520   -1.9801    0.0000 C   0  0  0  0  0  0  0  0  0  0  0  0
   -0.8965   -1.6420    0.0000 O   0  0  0  0  0  0  0  0  0  0  0  0
    0.5450   -1.5370    0.0000 C   0  0  0  0  0  0  0  0  0  0  0  0
    1.3251   -1.7865    0.0000 C   0  0  0  0  0  0  0  0  0  0  0  0
    1.8129   -1.1172    0.0000 O   0  0  0  0  0  0  0  0  0  0  0  0
    1.3318   -0.4624    0.0000 C   0  0  0  0  0  0  0  0  0  0  0  0
    0.5482   -0.7158    0.0000 N   0  0  0  0  0  0  0  0  0  0  0  0
    1.5673    0.3144    0.0000 C   0  0  0  0  0  0  0  0  0  0  0  0
    2.3750    0.6324    0.0000 C   0  0  0  0  0  0  0  0  0  0  0  0
    2.9588    1.3182    0.0000 C   0  0  0  0  0  0  0  0  0  0  0  0
    2.4074    2.0203    0.0000 C   0  0  0  0  0  0  0  0  0  0  0  0
    1.5803    1.6593    0.0000 C   0  0  0  0  0  0  0  0  0  0  0  0
    2.2068    1.3351    0.0000 O   0  0  0  0  0  0  0  0  0  0  0  0
    1.0619    0.9669    0.0000 C   0  0  0  0  0  0  0  0  0  0  0  0
    0.2514    1.0675    0.0000 C   0  0  0  0  0  0  0  0  0  0  0  0
   -0.1549    1.7353    0.0000 C   0  0  0  0  0  0  0  0  0  0  0  0
    0.2685    2.4479    0.0000 C   0  0  0  0  0  0  0  0  0  0  0  0
   -0.1435    3.1653    0.0000 C   0  0  0  0  0  0  0  0  0  0  0  0
   -0.9491    3.1648    0.0000 C   0  0  0  0  0  0  0  0  0  0  0  0
   -1.3615    2.4380    0.0000 C   0  0  0  0  0  0  0  0  0  0  0  0
   -0.9510    1.7216    0.0000 C   0  0  0  0  0  0  0  0  0  0  0  0
   -1.4124    1.0377    0.0000 C   0  0  0  0  0  0  0  0  0  0  0  0
   -2.2056    0.8764    0.0000 C   0  0  0  0  0  0  0  0  0  0  0  0
   -2.6552    0.1973    0.0000 C   0  0  0  0  0  0  0  0  0  0  0  0
   -2.1789   -0.4683    0.0000 O   0  0  0  0  0  0  0  0  0  0  0  0
   -3.4709    0.2719    0.0000 O   0  0  0  0  0  0  0  0  0  0  0  0
  1  2  1  0  0  0  0
  2  3  1  0  0  0  0
  2  4  1  0  0  0  0
  2  5  1  0  0  0  0
  5  6  1  0  0  0  0
  6  7  2  0  0  0  0
  6  8  1  0  0  0  0
  8  9  2  0  0  0  0
  9 10  1  0  0  0  0
 10 11  1  0  0  0  0
 11 12  2  0  0  0  0
  8 12  1  0  0  0  0
 11 13  1  0  0  0  0
 13 14  1  0  0  0  0
 14 15  1  0  0  0  0
 15 16  1  0  0  0  0
 16 17  1  0  0  0  0
 17 18  1  0  0  0  0
 14 18  1  0  0  0  0
 17 19  1  0  0  0  0
 13 19  1  0  0  0  0
 19 20  1  0  0  0  0
 20 21  1  0  0  0  0
 21 22  1  0  0  0  0
 22 23  2  0  0  0  0
 23 24  1  0  0  0  0
 24 25  2  0  0  0  0
 25 26  1  0  0  0  0
 21 26  2  0  0  0  0
 26 27  1  0  0  0  0
 27 28  1  0  0  0  0
 28 29  1  0  0  0  0
 29 30  2  0  0  0  0
 29 31  1  0  0  0  0
M  END
>  <Name>
CHEMBL287421

>  <Target_Uniprot>
P21731

>  <CHEMBL Canonical SMILES>
CC(C)(C)NC(=O)c1coc(n1)C2C3CCC(O3)C2Cc4ccccc4CCC(=O)O

>  <PubMed ID>
8496908

$$$$

  Marvin  08031817322D          

 34 36  0  0  0  0            999 V2000
    3.0260   -1.2860    0.0000 O   0  0  0  0  0  0  0  0  0  0  0  0
    3.0260   -2.1110    0.0000 C   0  0  0  0  0  0  0  0  0  0  0  0
    3.7405   -2.5235    0.0000 O   0  0  0  0  0  0  0  0  0  0  0  0
    2.3115   -2.5235    0.0000 C   0  0  0  0  0  0  0  0  0  0  0  0
    1.5971   -2.1110    0.0000 C   0  0  0  0  0  0  0  0  0  0  0  0
    0.8826   -2.5235    0.0000 C   0  0  0  0  0  0  0  0  0  0  0  0
    0.1681   -2.1110    0.0000 C   0  0  0  0  0  0  0  0  0  0  0  0
   -0.5464   -2.5235    0.0000 C   0  0  0  0  0  0  0  0  0  0  0  0
   -1.2608   -2.1110    0.0000 C   0  0  0  0  0  0  0  0  0  0  0  0
   -1.2608   -1.2860    0.0000 C   0  0  0  0  0  0  0  0  0  0  0  0
   -0.5464   -0.8735    0.0000 C   0  0  0  0  0  0  0  0  0  0  0  0
   -0.5464   -0.0485    0.0000 C   0  0  0  0  0  0  0  0  0  0  0  0
   -1.2608    0.3640    0.0000 C   0  0  0  0  0  0  0  0  0  0  0  0
   -1.2608    1.1890    0.0000 C   0  0  0  0  0  0  0  0  0  0  0  0
   -0.5464    1.6015    0.0000 C   0  0  0  0  0  0  0  0  0  0  0  0
   -0.5464    2.4265    0.0000 N   0  0  0  0  0  0  0  0  0  0  0  0
    0.1681    2.8390    0.0000 S   0  0  0  0  0  0  0  0  0  0  0  0
   -0.2444    3.5534    0.0000 O   0  0  0  0  0  0  0  0  0  0  0  0
    0.5806    2.1245    0.0000 O   0  0  0  0  0  0  0  0  0  0  0  0
    0.8826    3.2515    0.0000 C   0  0  0  0  0  0  0  0  0  0  0  0
    1.5971    2.8390    0.0000 C   0  0  0  0  0  0  0  0  0  0  0  0
    2.3115    3.2515    0.0000 C   0  0  0  0  0  0  0  0  0  0  0  0
    2.3115    4.0765    0.0000 C   0  0  0  0  0  0  0  0  0  0  0  0
    3.0260    4.4890    0.0000 Cl  0  0  0  0  0  0  0  0  0  0  0  0
    1.5971    4.4890    0.0000 C   0  0  0  0  0  0  0  0  0  0  0  0
    0.8826    4.0765    0.0000 C   0  0  0  0  0  0  0  0  0  0  0  0
   -1.9753   -0.0485    0.0000 C   0  0  0  0  0  0  0  0  0  0  0  0
   -1.9753   -0.8735    0.0000 C   0  0  0  0  0  0  0  0  0  0  0  0
   -1.9753   -2.5235    0.0000 C   0  0  0  0  0  0  0  0  0  0  0  0
   -2.6898   -2.1110    0.0000 C   0  0  0  0  0  0  0  0  0  0  0  0
   -3.4042   -2.5235    0.0000 C   0  0  0  0  0  0  0  0  0  0  0  0
   -3.4042   -3.3485    0.0000 C   0  0  0  0  0  0  0  0  0  0  0  0
   -2.6898   -3.7610    0.0000 N   0  0  0  0  0  0  0  0  0  0  0  0
   -1.9753   -3.3485    0.0000 C   0  0  0  0  0  0  0  0  0  0  0  0
  1  2  1  0  0  0  0
  2  3  2  0  0  0  0
  2  4  1  0  0  0  0
  4  5  1  0  0  0  0
  5  6  1  0  0  0  0
  6  7  1  0  0  0  0
  7  8  1  0  0  0  0
  8  9  2  0  0  0  0
  9 10  1  0  0  0  0
 10 11  1  0  0  0  0
 11 12  2  0  0  0  0
 12 13  1  0  0  0  0
 13 14  1  0  0  0  0
 14 15  1  0  0  0  0
 15 16  1  0  0  0  0
 16 17  1  0  0  0  0
 17 18  2  0  0  0  0
 17 19  2  0  0  0  0
 17 20  1  0  0  0  0
 20 21  1  0  0  0  0
 21 22  2  0  0  0  0
 22 23  1  0  0  0  0
 23 24  1  0  0  0  0
 23 25  2  0  0  0  0
 25 26  1  0  0  0  0
 20 26  2  0  0  0  0
 13 27  2  0  0  0  0
 27 28  1  0  0  0  0
 10 28  2  0  0  0  0
  9 29  1  0  0  0  0
 29 30  1  0  0  0  0
 30 31  2  0  0  0  0
 31 32  1  0  0  0  0
 32 33  2  0  0  0  0
 33 34  1  0  0  0  0
 29 34  2  0  0  0  0
M  END
>  <Name>
CHEMBL127017

>  <Target_Uniprot>
P21731

>  <CHEMBL Canonical SMILES>
OC(=O)CCCC\C=C(/c1ccc(CCNS(=O)(=O)c2ccc(Cl)cc2)cc1)\c3cccnc3

>  <PubMed ID>
8289199

$$$$

  Marvin  08031817322D          

 33 35  0  0  0  0            999 V2000
    2.4465   -3.3625    0.0000 O   0  0  0  0  0  0  0  0  0  0  0  0
    2.4465   -2.5375    0.0000 C   0  0  0  0  0  0  0  0  0  0  0  0
    3.1610   -2.1250    0.0000 O   0  0  0  0  0  0  0  0  0  0  0  0
    1.7321   -2.1250    0.0000 C   0  0  0  0  0  0  0  0  0  0  0  0
    1.0176   -2.5375    0.0000 C   0  0  0  0  0  0  0  0  0  0  0  0
    0.3031   -2.1250    0.0000 C   0  0  0  0  0  0  0  0  0  0  0  0
   -0.4114   -2.5375    0.0000 C   0  0  0  0  0  0  0  0  0  0  0  0
   -1.1258   -2.1250    0.0000 C   0  0  0  0  0  0  0  0  0  0  0  0
   -1.1258   -1.3000    0.0000 C   0  0  0  0  0  0  0  0  0  0  0  0
   -0.4114   -0.8875    0.0000 C   0  0  0  0  0  0  0  0  0  0  0  0
   -0.4114   -0.0625    0.0000 C   0  0  0  0  0  0  0  0  0  0  0  0
   -1.1258    0.3500    0.0000 C   0  0  0  0  0  0  0  0  0  0  0  0
   -1.1258    1.1750    0.0000 C   0  0  0  0  0  0  0  0  0  0  0  0
   -0.4114    1.5875    0.0000 C   0  0  0  0  0  0  0  0  0  0  0  0
   -0.4114    2.4125    0.0000 N   0  0  0  0  0  0  0  0  0  0  0  0
    0.3031    2.8250    0.0000 S   0  0  0  0  0  0  0  0  0  0  0  0
   -0.1094    3.5395    0.0000 O   0  0  0  0  0  0  0  0  0  0  0  0
    0.7156    2.1105    0.0000 O   0  0  0  0  0  0  0  0  0  0  0  0
    1.0176    3.2375    0.0000 C   0  0  0  0  0  0  0  0  0  0  0  0
    1.7321    2.8250    0.0000 C   0  0  0  0  0  0  0  0  0  0  0  0
    2.4465    3.2375    0.0000 C   0  0  0  0  0  0  0  0  0  0  0  0
    2.4465    4.0625    0.0000 C   0  0  0  0  0  0  0  0  0  0  0  0
    3.1610    4.4750    0.0000 Cl  0  0  0  0  0  0  0  0  0  0  0  0
    1.7321    4.4750    0.0000 C   0  0  0  0  0  0  0  0  0  0  0  0
    1.0176    4.0625    0.0000 C   0  0  0  0  0  0  0  0  0  0  0  0
   -1.8403   -0.0625    0.0000 C   0  0  0  0  0  0  0  0  0  0  0  0
   -1.8403   -0.8875    0.0000 C   0  0  0  0  0  0  0  0  0  0  0  0
   -1.8403   -2.5375    0.0000 C   0  0  0  0  0  0  0  0  0  0  0  0
   -2.5548   -2.1250    0.0000 C   0  0  0  0  0  0  0  0  0  0  0  0
   -3.2692   -2.5375    0.0000 C   0  0  0  0  0  0  0  0  0  0  0  0
   -3.2692   -3.3625    0.0000 C   0  0  0  0  0  0  0  0  0  0  0  0
   -2.5548   -3.7750    0.0000 N   0  0  0  0  0  0  0  0  0  0  0  0
   -1.8403   -3.3625    0.0000 C   0  0  0  0  0  0  0  0  0  0  0  0
  1  2  1  0  0  0  0
  2  3  2  0  0  0  0
  2  4  1  0  0  0  0
  4  5  1  0  0  0  0
  5  6  1  0  0  0  0
  6  7  1  0  0  0  0
  7  8  2  0  0  0  0
  8  9  1  0  0  0  0
  9 10  1  0  0  0  0
 10 11  2  0  0  0  0
 11 12  1  0  0  0  0
 12 13  1  0  0  0  0
 13 14  1  0  0  0  0
 14 15  1  0  0  0  0
 15 16  1  0  0  0  0
 16 17  2  0  0  0  0
 16 18  2  0  0  0  0
 16 19  1  0  0  0  0
 19 20  1  0  0  0  0
 20 21  2  0  0  0  0
 21 22  1  0  0  0  0
 22 23  1  0  0  0  0
 22 24  2  0  0  0  0
 24 25  1  0  0  0  0
 19 25  2  0  0  0  0
 12 26  2  0  0  0  0
 26 27  1  0  0  0  0
  9 27  2  0  0  0  0
  8 28  1  0  0  0  0
 28 29  1  0  0  0  0
 29 30  2  0  0  0  0
 30 31  1  0  0  0  0
 31 32  2  0  0  0  0
 32 33  1  0  0  0  0
 28 33  2  0  0  0  0
M  END
>  <Name>
CHEMBL277689

>  <Target_Uniprot>
P21731

>  <CHEMBL Canonical SMILES>
OC(=O)CCC\C=C(/c1ccc(CCNS(=O)(=O)c2ccc(Cl)cc2)cc1)\c3cccnc3

>  <PubMed ID>
8289199

$$$$

  Marvin  08031817322D          

 36 39  0  0  0  0            999 V2000
   -1.2470    0.5833    0.0000 O   0  0  0  0  0  0  0  0  0  0  0  0
   -2.0540    0.4118    0.0000 C   0  0  0  0  0  0  0  0  0  0  0  0
   -2.6060    1.0249    0.0000 O   0  0  0  0  0  0  0  0  0  0  0  0
   -2.3090   -0.3728    0.0000 C   0  0  0  0  0  0  0  0  0  0  0  0
   -1.7569   -0.9859    0.0000 C   0  0  0  0  0  0  0  0  0  0  0  0
   -2.0119   -1.7705    0.0000 C   0  0  0  0  0  0  0  0  0  0  0  0
   -2.8188   -1.9421    0.0000 C   0  0  0  0  0  0  0  0  0  0  0  0
   -3.0738   -2.7267    0.0000 C   0  0  0  0  0  0  0  0  0  0  0  0
   -2.5217   -3.3398    0.0000 C   0  0  0  0  0  0  0  0  0  0  0  0
   -1.7148   -3.1683    0.0000 C   0  0  0  0  0  0  0  0  0  0  0  0
   -1.4598   -2.3836    0.0000 C   0  0  0  0  0  0  0  0  0  0  0  0
   -0.6529   -2.2121    0.0000 C   0  0  0  0  0  0  0  0  0  0  0  0
   -0.1008   -2.8252    0.0000 C   0  0  0  0  0  0  0  0  0  0  0  0
   -0.3558   -3.6098    0.0000 C   0  0  0  0  0  0  0  0  0  0  0  0
    0.1963   -4.2229    0.0000 C   0  0  0  0  0  0  0  0  0  0  0  0
    1.0032   -4.0514    0.0000 C   0  0  0  0  0  0  0  0  0  0  0  0
    1.2582   -3.2668    0.0000 C   0  0  0  0  0  0  0  0  0  0  0  0
    0.7061   -2.6537    0.0000 C   0  0  0  0  0  0  0  0  0  0  0  0
    0.9611   -1.8690    0.0000 C   0  0  0  0  0  0  0  0  0  0  0  0
    1.7457   -1.6141    0.0000 O   0  0  0  0  0  0  0  0  0  0  0  0
    1.7457   -0.7891    0.0000 C   0  0  0  0  0  0  0  0  0  0  0  0
    0.9611   -0.5342    0.0000 C   0  0  0  0  0  0  0  0  0  0  0  0
    0.4762   -1.2016    0.0000 N   0  0  0  0  0  0  0  0  0  0  0  0
    0.7061    0.2504    0.0000 C   0  0  0  0  0  0  0  0  0  0  0  0
   -0.1008    0.4220    0.0000 O   0  0  0  0  0  0  0  0  0  0  0  0
    1.2582    0.8635    0.0000 N   0  0  0  0  0  0  0  0  0  0  0  0
    1.0032    1.6482    0.0000 C   0  0  0  0  0  0  0  0  0  0  0  0
    1.5553    2.2613    0.0000 C   0  0  0  0  0  0  0  0  0  0  0  0
    1.3003    3.0459    0.0000 C   0  0  0  0  0  0  0  0  0  0  0  0
    1.8524    3.6590    0.0000 C   0  0  0  0  0  0  0  0  0  0  0  0
    1.5974    4.4436    0.0000 C   0  0  0  0  0  0  0  0  0  0  0  0
    2.1495    5.0567    0.0000 C   0  0  0  0  0  0  0  0  0  0  0  0
    1.8945    5.8413    0.0000 C   0  0  0  0  0  0  0  0  0  0  0  0
    1.0876    6.0128    0.0000 C   0  0  0  0  0  0  0  0  0  0  0  0
    0.5355    5.3997    0.0000 C   0  0  0  0  0  0  0  0  0  0  0  0
    0.7905    4.6151    0.0000 C   0  0  0  0  0  0  0  0  0  0  0  0
  1  2  1  0  0  0  0
  2  3  2  0  0  0  0
  2  4  1  0  0  0  0
  4  5  1  0  0  0  0
  5  6  1  0  0  0  0
  6  7  1  0  0  0  0
  7  8  2  0  0  0  0
  8  9  1  0  0  0  0
  9 10  2  0  0  0  0
 10 11  1  0  0  0  0
  6 11  2  0  0  0  0
 11 12  1  0  0  0  0
 12 13  1  0  0  0  0
 13 14  1  0  0  0  0
 14 15  2  0  0  0  0
 15 16  1  0  0  0  0
 16 17  2  0  0  0  0
 17 18  1  0  0  0  0
 13 18  2  0  0  0  0
 18 19  1  0  0  0  0
 19 20  1  0  0  0  0
 20 21  1  0  0  0  0
 21 22  2  0  0  0  0
 22 23  1  0  0  0  0
 19 23  2  0  0  0  0
 22 24  1  0  0  0  0
 24 25  2  0  0  0  0
 24 26  1  0  0  0  0
 26 27  1  0  0  0  0
 27 28  1  0  0  0  0
 28 29  1  0  0  0  0
 29 30  1  0  0  0  0
 30 31  1  0  0  0  0
 31 32  1  0  0  0  0
 32 33  1  0  0  0  0
 33 34  1  0  0  0  0
 34 35  1  0  0  0  0
 35 36  1  0  0  0  0
 31 36  1  0  0  0  0
M  END
>  <Name>
CHEMBL170747

>  <Target_Uniprot>
P21731

>  <CHEMBL Canonical SMILES>
OC(=O)CCc1ccccc1Cc2ccccc2c3occ(n3)C(=O)NCCCCC4CCCCC4

$$$$

  Marvin  08031817322D          

 36 40  0  0  0  0            999 V2000
    1.9927   -3.0521    0.0000 O   0  0  0  0  0  0  0  0  0  0  0  0
    1.3970   -2.4768    0.0000 C   0  0  0  0  0  0  0  0  0  0  0  0
    0.5786   -2.5961    0.0000 O   0  0  0  0  0  0  0  0  0  0  0  0
    1.7282   -1.7228    0.0000 C   0  0  0  0  0  0  0  0  0  0  0  0
    2.5120   -1.4653    0.0000 C   0  0  0  0  0  0  0  0  0  0  0  0
    3.0673   -2.0813    0.0000 C   0  0  0  0  0  0  0  0  0  0  0  0
    3.8796   -1.9107    0.0000 C   0  0  0  0  0  0  0  0  0  0  0  0
    4.1347   -1.1249    0.0000 C   0  0  0  0  0  0  0  0  0  0  0  0
    3.5782   -0.5098    0.0000 C   0  0  0  0  0  0  0  0  0  0  0  0
    2.7690   -0.6852    0.0000 C   0  0  0  0  0  0  0  0  0  0  0  0
    2.2757   -0.0476    0.0000 C   0  0  0  0  0  0  0  0  0  0  0  0
    2.4300    0.7161    0.0000 C   0  0  0  0  0  0  0  0  0  0  0  0
    3.2960    0.9041    0.0000 C   0  0  0  0  0  0  0  0  0  0  0  0
    3.8369    1.7165    0.0000 C   0  0  0  0  0  0  0  0  0  0  0  0
    3.2803    2.4247    0.0000 C   0  0  0  0  0  0  0  0  0  0  0  0
    2.6144    1.9859    0.0000 C   0  0  0  0  0  0  0  0  0  0  0  0
    3.4408    1.5096    0.0000 O   0  0  0  0  0  0  0  0  0  0  0  0
    2.0224    1.4211    0.0000 C   0  0  0  0  0  0  0  0  0  0  0  0
    1.1467    1.4074    0.0000 C   0  0  0  0  0  0  0  0  0  0  0  0
    0.6533    2.0790    0.0000 O   0  0  0  0  0  0  0  0  0  0  0  0
   -0.1342    1.8242    0.0000 C   0  0  0  0  0  0  0  0  0  0  0  0
   -0.1333    0.9987    0.0000 C   0  0  0  0  0  0  0  0  0  0  0  0
    0.6505    0.7383    0.0000 N   0  0  0  0  0  0  0  0  0  0  0  0
   -0.7295    0.4453    0.0000 C   0  0  0  0  0  0  0  0  0  0  0  0
   -0.7269   -0.3729    0.0000 O   0  0  0  0  0  0  0  0  0  0  0  0
   -1.4747    0.7808    0.0000 N   0  0  0  0  0  0  0  0  0  0  0  0
   -2.2051    0.4067    0.0000 C   0  0  0  0  0  0  0  0  0  0  0  0
   -2.9914    0.6428    0.0000 C   0  0  0  0  0  0  0  0  0  0  0  0
   -3.7026    0.2441    0.0000 C   0  0  0  0  0  0  0  0  0  0  0  0
   -4.4659    0.4904    0.0000 C   0  0  0  0  0  0  0  0  0  0  0  0
   -5.1227    0.0383    0.0000 C   0  0  0  0  0  0  0  0  0  0  0  0
   -5.8727    0.3738    0.0000 C   0  0  0  0  0  0  0  0  0  0  0  0
   -6.5445   -0.1140    0.0000 C   0  0  0  0  0  0  0  0  0  0  0  0
   -6.4552   -0.9377    0.0000 C   0  0  0  0  0  0  0  0  0  0  0  0
   -5.6971   -1.2717    0.0000 C   0  0  0  0  0  0  0  0  0  0  0  0
   -5.0291   -0.7792    0.0000 C   0  0  0  0  0  0  0  0  0  0  0  0
  1  2  1  0  0  0  0
  2  3  2  0  0  0  0
  2  4  1  0  0  0  0
  4  5  1  0  0  0  0
  5  6  1  0  0  0  0
  6  7  2  0  0  0  0
  7  8  1  0  0  0  0
  8  9  2  0  0  0  0
  9 10  1  0  0  0  0
  5 10  2  0  0  0  0
 10 11  1  0  0  0  0
 11 12  1  0  0  0  0
 12 13  1  0  0  0  0
 13 14  1  0  0  0  0
 14 15  1  0  0  0  0
 15 16  1  0  0  0  0
 16 17  1  0  0  0  0
 13 17  1  0  0  0  0
 16 18  1  0  0  0  0
 12 18  1  0  0  0  0
 18 19  1  0  0  0  0
 19 20  1  0  0  0  0
 20 21  1  0  0  0  0
 21 22  2  0  0  0  0
 22 23  1  0  0  0  0
 19 23  2  0  0  0  0
 22 24  1  0  0  0  0
 24 25  2  0  0  0  0
 24 26  1  0  0  0  0
 26 27  1  0  0  0  0
 27 28  1  0  0  0  0
 28 29  1  0  0  0  0
 29 30  1  0  0  0  0
 30 31  1  0  0  0  0
 31 32  1  0  0  0  0
 32 33  1  0  0  0  0
 33 34  1  0  0  0  0
 34 35  1  0  0  0  0
 35 36  1  0  0  0  0
 31 36  1  0  0  0  0
M  END
>  <Name>
CHEMBL31043

>  <Target_Uniprot>
P21731

>  <CHEMBL Canonical SMILES>
OC(=O)Cc1ccccc1CC2C3CCC(O3)C2c4occ(n4)C(=O)NCCCCC5CCCCC5

>  <PubMed ID>
8496908

$$$$

  Marvin  08031817322D          

 36 40  0  0  0  0            999 V2000
    0.2937   -1.8483    0.0000 O   0  0  0  0  0  0  0  0  0  0  0  0
    0.8436   -2.4677    0.0000 C   0  0  0  0  0  0  0  0  0  0  0  0
    0.5932   -3.2573    0.0000 O   0  0  0  0  0  0  0  0  0  0  0  0
    1.6590   -2.3169    0.0000 C   0  0  0  0  0  0  0  0  0  0  0  0
    2.2103   -2.9344    0.0000 C   0  0  0  0  0  0  0  0  0  0  0  0
    3.0207   -2.7653    0.0000 C   0  0  0  0  0  0  0  0  0  0  0  0
    3.2793   -1.9716    0.0000 C   0  0  0  0  0  0  0  0  0  0  0  0
    2.7295   -1.3586    0.0000 C   0  0  0  0  0  0  0  0  0  0  0  0
    2.9256   -0.5686    0.0000 C   0  0  0  0  0  0  0  0  0  0  0  0
    2.4893    0.0895    0.0000 C   0  0  0  0  0  0  0  0  0  0  0  0
    2.6720    0.8454    0.0000 C   0  0  0  0  0  0  0  0  0  0  0  0
    3.5453    1.0281    0.0000 C   0  0  0  0  0  0  0  0  0  0  0  0
    4.0905    1.8493    0.0000 C   0  0  0  0  0  0  0  0  0  0  0  0
    3.5391    2.5606    0.0000 C   0  0  0  0  0  0  0  0  0  0  0  0
    2.8704    2.1178    0.0000 C   0  0  0  0  0  0  0  0  0  0  0  0
    3.6924    1.6321    0.0000 O   0  0  0  0  0  0  0  0  0  0  0  0
    2.2701    1.5541    0.0000 C   0  0  0  0  0  0  0  0  0  0  0  0
    1.3894    1.5413    0.0000 C   0  0  0  0  0  0  0  0  0  0  0  0
    0.8944    2.2135    0.0000 O   0  0  0  0  0  0  0  0  0  0  0  0
    0.1051    1.9585    0.0000 C   0  0  0  0  0  0  0  0  0  0  0  0
    0.1050    1.1313    0.0000 C   0  0  0  0  0  0  0  0  0  0  0  0
    0.8901    0.8708    0.0000 N   0  0  0  0  0  0  0  0  0  0  0  0
   -0.4943    0.5720    0.0000 C   0  0  0  0  0  0  0  0  0  0  0  0
   -0.4902   -0.2488    0.0000 O   0  0  0  0  0  0  0  0  0  0  0  0
   -1.2401    0.9143    0.0000 N   0  0  0  0  0  0  0  0  0  0  0  0
   -1.9715    0.5357    0.0000 C   0  0  0  0  0  0  0  0  0  0  0  0
   -2.7587    0.7758    0.0000 C   0  0  0  0  0  0  0  0  0  0  0  0
   -3.4683    0.3714    0.0000 C   0  0  0  0  0  0  0  0  0  0  0  0
   -4.2318    0.6275    0.0000 C   0  0  0  0  0  0  0  0  0  0  0  0
   -4.8963    0.1671    0.0000 C   0  0  0  0  0  0  0  0  0  0  0  0
   -5.6474    0.5027    0.0000 C   0  0  0  0  0  0  0  0  0  0  0  0
   -6.3217    0.0124    0.0000 C   0  0  0  0  0  0  0  0  0  0  0  0
   -6.2323   -0.8115    0.0000 C   0  0  0  0  0  0  0  0  0  0  0  0
   -5.4740   -1.1457    0.0000 C   0  0  0  0  0  0  0  0  0  0  0  0
   -4.8028   -0.6514    0.0000 C   0  0  0  0  0  0  0  0  0  0  0  0
    1.9215   -1.5251    0.0000 C   0  0  0  0  0  0  0  0  0  0  0  0
  1  2  1  0  0  0  0
  2  3  2  0  0  0  0
  2  4  1  0  0  0  0
  4  5  1  0  0  0  0
  5  6  2  0  0  0  0
  6  7  1  0  0  0  0
  7  8  2  0  0  0  0
  8  9  1  0  0  0  0
  9 10  1  0  0  0  0
 10 11  1  0  0  0  0
 11 12  1  0  0  0  0
 12 13  1  0  0  0  0
 13 14  1  0  0  0  0
 14 15  1  0  0  0  0
 15 16  1  0  0  0  0
 12 16  1  0  0  0  0
 15 17  1  0  0  0  0
 11 17  1  0  0  0  0
 17 18  1  0  0  0  0
 18 19  1  0  0  0  0
 19 20  1  0  0  0  0
 20 21  2  0  0  0  0
 21 22  1  0  0  0  0
 18 22  2  0  0  0  0
 21 23  1  0  0  0  0
 23 24  2  0  0  0  0
 23 25  1  0  0  0  0
 25 26  1  0  0  0  0
 26 27  1  0  0  0  0
 27 28  1  0  0  0  0
 28 29  1  0  0  0  0
 29 30  1  0  0  0  0
 30 31  1  0  0  0  0
 31 32  1  0  0  0  0
 32 33  1  0  0  0  0
 33 34  1  0  0  0  0
 34 35  1  0  0  0  0
 30 35  1  0  0  0  0
  8 36  1  0  0  0  0
  4 36  2  0  0  0  0
M  END
>  <Name>
CHEMBL286708

>  <Target_Uniprot>
P21731

>  <CHEMBL Canonical SMILES>
OC(=O)c1cccc(CCC2C3CCC(O3)C2c4occ(n4)C(=O)NCCCCC5CCCCC5)c1

>  <PubMed ID>
8496908

$$$$

  Marvin  08031817322D          

 36 39  0  0  0  0            999 V2000
   -4.7053    1.8537    0.0000 C   0  0  0  0  0  0  0  0  0  0  0  0
   -4.1005    2.4149    0.0000 O   0  0  0  0  0  0  0  0  0  0  0  0
   -3.3122    2.1717    0.0000 C   0  0  0  0  0  0  0  0  0  0  0  0
   -3.1286    1.3674    0.0000 C   0  0  0  0  0  0  0  0  0  0  0  0
   -2.3402    1.1242    0.0000 C   0  0  0  0  0  0  0  0  0  0  0  0
   -1.7355    1.6853    0.0000 C   0  0  0  0  0  0  0  0  0  0  0  0
   -0.9471    1.4422    0.0000 C   0  0  0  0  0  0  0  0  0  0  0  0
   -0.3424    2.0033    0.0000 O   0  0  0  0  0  0  0  0  0  0  0  0
   -0.7635    0.6379    0.0000 N   0  0  0  0  0  0  0  0  0  0  0  0
    0.0248    0.3947    0.0000 C   0  0  0  0  0  0  0  0  0  0  0  0
    0.2084   -0.4096    0.0000 C   0  0  0  0  0  0  0  0  0  0  0  0
    0.9967   -0.6528    0.0000 S   0  0  0  0  0  0  0  0  0  0  0  0
    1.1803   -1.4571    0.0000 C   0  0  0  0  0  0  0  0  0  0  0  0
    0.5353   -1.9715    0.0000 C   0  0  0  0  0  0  0  0  0  0  0  0
   -0.1792   -1.5590    0.0000 C   0  0  0  0  0  0  0  0  0  0  0  0
   -0.8936   -1.9715    0.0000 C   0  0  0  0  0  0  0  0  0  0  0  0
   -0.8936   -2.7965    0.0000 C   0  0  0  0  0  0  0  0  0  0  0  0
   -0.1792   -3.2090    0.0000 C   0  0  0  0  0  0  0  0  0  0  0  0
    0.5353   -2.7965    0.0000 C   0  0  0  0  0  0  0  0  0  0  0  0
    1.1803   -3.3109    0.0000 C   0  0  0  0  0  0  0  0  0  0  0  0
    1.9846   -3.1273    0.0000 O   0  0  0  0  0  0  0  0  0  0  0  0
    2.3426   -2.3840    0.0000 C   0  0  0  0  0  0  0  0  0  0  0  0
    3.1653   -2.4457    0.0000 C   0  0  0  0  0  0  0  0  0  0  0  0
    3.6300   -1.7640    0.0000 C   0  0  0  0  0  0  0  0  0  0  0  0
    3.2721   -1.0207    0.0000 C   0  0  0  0  0  0  0  0  0  0  0  0
    2.4494   -0.9591    0.0000 C   0  0  0  0  0  0  0  0  0  0  0  0
    1.9846   -1.6407    0.0000 C   0  0  0  0  0  0  0  0  0  0  0  0
    3.7368   -0.3391    0.0000 C   0  0  0  0  0  0  0  0  0  0  0  0
    3.3788    0.4042    0.0000 O   0  0  0  0  0  0  0  0  0  0  0  0
    4.5595   -0.4007    0.0000 O   0  0  0  0  0  0  0  0  0  0  0  0
   -1.9191    2.4897    0.0000 C   0  0  0  0  0  0  0  0  0  0  0  0
   -1.3143    3.0508    0.0000 O   0  0  0  0  0  0  0  0  0  0  0  0
   -0.5259    2.8076    0.0000 C   0  0  0  0  0  0  0  0  0  0  0  0
   -2.7074    2.7328    0.0000 C   0  0  0  0  0  0  0  0  0  0  0  0
   -2.8910    3.5371    0.0000 O   0  0  0  0  0  0  0  0  0  0  0  0
   -2.2862    4.0983    0.0000 C   0  0  0  0  0  0  0  0  0  0  0  0
  1  2  1  0  0  0  0
  2  3  1  0  0  0  0
  3  4  1  0  0  0  0
  4  5  2  0  0  0  0
  5  6  1  0  0  0  0
  6  7  1  0  0  0  0
  7  8  2  0  0  0  0
  7  9  1  0  0  0  0
  9 10  1  0  0  0  0
 10 11  1  0  0  0  0
 11 12  1  0  0  0  0
 12 13  1  0  0  0  0
 13 14  1  0  0  0  0
 14 15  1  0  0  0  0
 15 16  2  0  0  0  0
 16 17  1  0  0  0  0
 17 18  2  0  0  0  0
 18 19  1  0  0  0  0
 14 19  2  0  0  0  0
 19 20  1  0  0  0  0
 20 21  1  0  0  0  0
 21 22  1  0  0  0  0
 22 23  1  0  0  0  0
 23 24  2  0  0  0  0
 24 25  1  0  0  0  0
 25 26  2  0  0  0  0
 26 27  1  0  0  0  0
 13 27  1  0  0  0  0
 22 27  2  0  0  0  0
 25 28  1  0  0  0  0
 28 29  2  0  0  0  0
 28 30  1  0  0  0  0
  6 31  2  0  0  0  0
 31 32  1  0  0  0  0
 32 33  1  0  0  0  0
 31 34  1  0  0  0  0
  3 34  2  0  0  0  0
 34 35  1  0  0  0  0
 35 36  1  0  0  0  0
M  END
>  <Name>
CHEMBL114785

>  <Target_Uniprot>
P21731

>  <CHEMBL Canonical SMILES>
COc1ccc(C(=O)NCCSC2c3ccccc3COc4ccc(cc24)C(=O)O)c(OC)c1OC

>  <PubMed ID>
1388207

$$$$

  Marvin  08031817322D          

 30 33  0  0  0  0            999 V2000
   -0.3716   -0.5303    0.0000 C   0  0  0  0  0  0  0  0  0  0  0  0
   -1.1966   -0.5303    0.0000 S   0  0  0  0  0  0  0  0  0  0  0  0
   -2.0216   -0.5303    0.0000 O   0  0  0  0  0  0  0  0  0  0  0  0
   -1.6091   -1.2448    0.0000 O   0  0  0  0  0  0  0  0  0  0  0  0
   -1.1966    0.2947    0.0000 C   0  0  0  0  0  0  0  0  0  0  0  0
   -1.9110    0.7072    0.0000 C   0  0  0  0  0  0  0  0  0  0  0  0
   -1.9110    1.5322    0.0000 C   0  0  0  0  0  0  0  0  0  0  0  0
   -1.1966    1.9447    0.0000 N   0  0  0  0  0  0  0  0  0  0  0  0
   -0.4821    1.5322    0.0000 C   0  0  0  0  0  0  0  0  0  0  0  0
   -0.4821    0.7072    0.0000 C   0  0  0  0  0  0  0  0  0  0  0  0
    0.3025    0.4522    0.0000 C   0  0  0  0  0  0  0  0  0  0  0  0
    0.5575   -0.3324    0.0000 S   0  0  0  0  0  0  0  0  0  0  0  0
    0.0054   -0.9455    0.0000 C   0  0  0  0  0  0  0  0  0  0  0  0
   -0.8015   -0.7740    0.0000 C   0  0  0  0  0  0  0  0  0  0  0  0
   -1.3536   -1.3871    0.0000 C   0  0  0  0  0  0  0  0  0  0  0  0
   -1.0986   -2.1717    0.0000 C   0  0  0  0  0  0  0  0  0  0  0  0
   -0.2917   -2.3432    0.0000 C   0  0  0  0  0  0  0  0  0  0  0  0
   -0.0367   -3.1278    0.0000 Cl  0  0  0  0  0  0  0  0  0  0  0  0
    0.2604   -1.7301    0.0000 C   0  0  0  0  0  0  0  0  0  0  0  0
    1.0673   -1.9016    0.0000 Cl  0  0  0  0  0  0  0  0  0  0  0  0
    0.7874    1.1197    0.0000 C   0  0  0  0  0  0  0  0  0  0  0  0
    1.6079    1.2059    0.0000 C   0  0  0  0  0  0  0  0  0  0  0  0
    2.0929    0.5385    0.0000 C   0  0  0  0  0  0  0  0  0  0  0  0
    1.7573   -0.2152    0.0000 C   0  0  0  0  0  0  0  0  0  0  0  0
    0.9368   -0.3015    0.0000 O   0  0  0  0  0  0  0  0  0  0  0  0
    2.2422   -0.8827    0.0000 O   0  0  0  0  0  0  0  0  0  0  0  0
    1.9435    1.9596    0.0000 C   0  0  0  0  0  0  0  0  0  0  0  0
    1.4586    2.6270    0.0000 C   0  0  0  0  0  0  0  0  0  0  0  0
    0.6381    2.5408    0.0000 C   0  0  0  0  0  0  0  0  0  0  0  0
    0.3025    1.7871    0.0000 N   0  0  0  0  0  0  0  0  0  0  0  0
  1  2  1  0  0  0  0
  2  3  2  0  0  0  0
  2  4  2  0  0  0  0
  2  5  1  0  0  0  0
  5  6  1  0  0  0  0
  6  7  2  0  0  0  0
  7  8  1  0  0  0  0
  8  9  2  0  0  0  0
  9 10  1  0  0  0  0
  5 10  2  0  0  0  0
 10 11  1  0  0  0  0
 11 12  1  0  0  0  0
 12 13  1  0  0  0  0
 13 14  1  0  0  0  0
 14 15  2  0  0  0  0
 15 16  1  0  0  0  0
 16 17  2  0  0  0  0
 17 18  1  0  0  0  0
 17 19  1  0  0  0  0
 13 19  2  0  0  0  0
 19 20  1  0  0  0  0
 11 21  2  0  0  0  0
 21 22  1  0  0  0  0
 22 23  1  0  0  0  0
 23 24  1  0  0  0  0
 24 25  2  0  0  0  0
 24 26  1  0  0  0  0
 22 27  1  0  0  0  0
 27 28  1  0  0  0  0
 28 29  1  0  0  0  0
 29 30  1  0  0  0  0
  9 30  1  0  0  0  0
 21 30  1  0  0  0  0
M  END
>  <Name>
CHEMBL484327

>  <Target_Uniprot>
P21731

>  <CHEMBL Canonical SMILES>
CS(=O)(=O)c1ccnc2c1c(Sc3cccc(Cl)c3Cl)c4C(CC(=O)O)CCCn24

>  <PubMed ID>
19307115

$$$$

  Marvin  08031817322D          

 31 35  0  0  0  0            999 V2000
    2.2547    2.9482    0.0000 C   0  0  0  0  0  0  0  0  0  0  0  0
    1.5402    2.5357    0.0000 C   0  0  0  0  0  0  0  0  0  0  0  0
    0.8258    2.9482    0.0000 C   0  0  0  0  0  0  0  0  0  0  0  0
    0.1113    2.5357    0.0000 C   0  0  0  0  0  0  0  0  0  0  0  0
   -0.6733    2.7906    0.0000 N   0  0  0  0  0  0  0  0  0  0  0  0
   -1.1583    2.1232    0.0000 C   0  0  0  0  0  0  0  0  0  0  0  0
   -0.6733    1.4557    0.0000 N   0  0  0  0  0  0  0  0  0  0  0  0
   -0.9283    0.6711    0.0000 C   0  0  0  0  0  0  0  0  0  0  0  0
   -0.3762    0.0580    0.0000 C   0  0  0  0  0  0  0  0  0  0  0  0
   -0.6312   -0.7266    0.0000 C   0  0  0  0  0  0  0  0  0  0  0  0
   -1.4487   -0.8373    0.0000 C   0  0  0  0  0  0  0  0  0  0  0  0
   -1.8505   -0.1168    0.0000 C   0  0  0  0  0  0  0  0  0  0  0  0
   -2.6754   -0.1044    0.0000 C   0  0  0  0  0  0  0  0  0  0  0  0
   -3.0985   -0.8126    0.0000 C   0  0  0  0  0  0  0  0  0  0  0  0
   -2.6968   -1.5332    0.0000 C   0  0  0  0  0  0  0  0  0  0  0  0
   -1.8719   -1.5456    0.0000 C   0  0  0  0  0  0  0  0  0  0  0  0
   -1.5820   -2.3179    0.0000 C   0  0  0  0  0  0  0  0  0  0  0  0
   -0.7973   -2.5729    0.0000 O   0  0  0  0  0  0  0  0  0  0  0  0
   -0.1088   -2.1184    0.0000 C   0  0  0  0  0  0  0  0  0  0  0  0
    0.5658   -2.5933    0.0000 C   0  0  0  0  0  0  0  0  0  0  0  0
    1.3144   -2.2465    0.0000 C   0  0  0  0  0  0  0  0  0  0  0  0
    1.3883   -1.4248    0.0000 C   0  0  0  0  0  0  0  0  0  0  0  0
    0.7137   -0.9499    0.0000 C   0  0  0  0  0  0  0  0  0  0  0  0
   -0.0349   -1.2967    0.0000 C   0  0  0  0  0  0  0  0  0  0  0  0
    2.1369   -1.0780    0.0000 C   0  0  0  0  0  0  0  0  0  0  0  0
    2.2108   -0.2563    0.0000 O   0  0  0  0  0  0  0  0  0  0  0  0
    2.8115   -1.5529    0.0000 O   0  0  0  0  0  0  0  0  0  0  0  0
    0.1113    1.7107    0.0000 C   0  0  0  0  0  0  0  0  0  0  0  0
    0.8258    1.2982    0.0000 C   0  0  0  0  0  0  0  0  0  0  0  0
    1.5402    1.7107    0.0000 C   0  0  0  0  0  0  0  0  0  0  0  0
    2.2547    1.2982    0.0000 C   0  0  0  0  0  0  0  0  0  0  0  0
  1  2  1  0  0  0  0
  2  3  2  0  0  0  0
  3  4  1  0  0  0  0
  4  5  1  0  0  0  0
  5  6  2  0  0  0  0
  6  7  1  0  0  0  0
  7  8  1  0  0  0  0
  8  9  1  0  0  0  0
  9 10  1  0  0  0  0
 10 11  1  0  0  0  0
 11 12  1  0  0  0  0
 12 13  2  0  0  0  0
 13 14  1  0  0  0  0
 14 15  2  0  0  0  0
 15 16  1  0  0  0  0
 11 16  2  0  0  0  0
 16 17  1  0  0  0  0
 17 18  1  0  0  0  0
 18 19  1  0  0  0  0
 19 20  1  0  0  0  0
 20 21  2  0  0  0  0
 21 22  1  0  0  0  0
 22 23  2  0  0  0  0
 23 24  1  0  0  0  0
 10 24  1  0  0  0  0
 19 24  2  0  0  0  0
 22 25  1  0  0  0  0
 25 26  2  0  0  0  0
 25 27  1  0  0  0  0
  7 28  1  0  0  0  0
  4 28  2  0  0  0  0
 28 29  1  0  0  0  0
 29 30  2  0  0  0  0
  2 30  1  0  0  0  0
 30 31  1  0  0  0  0
M  END
>  <Name>
CHEMBL325521

>  <Target_Uniprot>
P21731

>  <CHEMBL Canonical SMILES>
Cc1cc2ncn(CCC3c4ccccc4COc5ccc(cc35)C(=O)O)c2cc1C

>  <PubMed ID>
1388208

$$$$

  Marvin  08031817322D          

 33 36  0  0  0  0            999 V2000
   -2.9964    4.9203    0.0000 C   0  0  0  0  0  0  0  0  0  0  0  0
   -2.2080    4.6772    0.0000 O   0  0  0  0  0  0  0  0  0  0  0  0
   -2.0244    3.8729    0.0000 C   0  0  0  0  0  0  0  0  0  0  0  0
   -2.6292    3.3117    0.0000 C   0  0  0  0  0  0  0  0  0  0  0  0
   -2.4456    2.5074    0.0000 C   0  0  0  0  0  0  0  0  0  0  0  0
   -1.6573    2.2642    0.0000 C   0  0  0  0  0  0  0  0  0  0  0  0
   -1.0525    2.8254    0.0000 C   0  0  0  0  0  0  0  0  0  0  0  0
   -1.2361    3.6297    0.0000 C   0  0  0  0  0  0  0  0  0  0  0  0
   -1.4737    1.4599    0.0000 S   0  0  0  0  0  0  0  0  0  0  0  0
   -2.2780    1.2763    0.0000 O   0  0  0  0  0  0  0  0  0  0  0  0
   -0.6694    1.6435    0.0000 O   0  0  0  0  0  0  0  0  0  0  0  0
   -1.2901    0.6556    0.0000 N   0  0  0  0  0  0  0  0  0  0  0  0
   -0.5018    0.4124    0.0000 C   0  0  0  0  0  0  0  0  0  0  0  0
   -0.3182   -0.3919    0.0000 C   0  0  0  0  0  0  0  0  0  0  0  0
    0.4701   -0.6351    0.0000 S   0  0  0  0  0  0  0  0  0  0  0  0
    0.6537   -1.4394    0.0000 C   0  0  0  0  0  0  0  0  0  0  0  0
    0.0087   -1.9538    0.0000 C   0  0  0  0  0  0  0  0  0  0  0  0
   -0.7058   -1.5413    0.0000 C   0  0  0  0  0  0  0  0  0  0  0  0
   -1.4202   -1.9538    0.0000 C   0  0  0  0  0  0  0  0  0  0  0  0
   -1.4202   -2.7788    0.0000 C   0  0  0  0  0  0  0  0  0  0  0  0
   -0.7058   -3.1913    0.0000 C   0  0  0  0  0  0  0  0  0  0  0  0
    0.0087   -2.7788    0.0000 C   0  0  0  0  0  0  0  0  0  0  0  0
    0.6537   -3.2931    0.0000 C   0  0  0  0  0  0  0  0  0  0  0  0
    1.4580   -3.1096    0.0000 O   0  0  0  0  0  0  0  0  0  0  0  0
    1.8160   -2.3663    0.0000 C   0  0  0  0  0  0  0  0  0  0  0  0
    2.6387   -2.4279    0.0000 C   0  0  0  0  0  0  0  0  0  0  0  0
    3.1034   -1.7463    0.0000 C   0  0  0  0  0  0  0  0  0  0  0  0
    2.7455   -1.0030    0.0000 C   0  0  0  0  0  0  0  0  0  0  0  0
    1.9228   -0.9413    0.0000 C   0  0  0  0  0  0  0  0  0  0  0  0
    1.4580   -1.6230    0.0000 C   0  0  0  0  0  0  0  0  0  0  0  0
    3.2102   -0.3213    0.0000 C   0  0  0  0  0  0  0  0  0  0  0  0
    2.8523    0.4220    0.0000 O   0  0  0  0  0  0  0  0  0  0  0  0
    4.0329   -0.3830    0.0000 O   0  0  0  0  0  0  0  0  0  0  0  0
  1  2  1  0  0  0  0
  2  3  1  0  0  0  0
  3  4  1  0  0  0  0
  4  5  2  0  0  0  0
  5  6  1  0  0  0  0
  6  7  2  0  0  0  0
  7  8  1  0  0  0  0
  3  8  2  0  0  0  0
  6  9  1  0  0  0  0
  9 10  2  0  0  0  0
  9 11  2  0  0  0  0
  9 12  1  0  0  0  0
 12 13  1  0  0  0  0
 13 14  1  0  0  0  0
 14 15  1  0  0  0  0
 15 16  1  0  0  0  0
 16 17  1  0  0  0  0
 17 18  1  0  0  0  0
 18 19  2  0  0  0  0
 19 20  1  0  0  0  0
 20 21  2  0  0  0  0
 21 22  1  0  0  0  0
 17 22  2  0  0  0  0
 22 23  1  0  0  0  0
 23 24  1  0  0  0  0
 24 25  1  0  0  0  0
 25 26  1  0  0  0  0
 26 27  2  0  0  0  0
 27 28  1  0  0  0  0
 28 29  2  0  0  0  0
 29 30  1  0  0  0  0
 16 30  1  0  0  0  0
 25 30  2  0  0  0  0
 28 31  1  0  0  0  0
 31 32  2  0  0  0  0
 31 33  1  0  0  0  0
M  END
>  <Name>
CHEMBL324583

>  <Target_Uniprot>
P21731

>  <CHEMBL Canonical SMILES>
COc1ccc(cc1)S(=O)(=O)NCCSC2c3ccccc3COc4ccc(cc24)C(=O)O

>  <PubMed ID>
1388207

$$$$

  Marvin  08031817322D          

 30 34  0  0  0  0            999 V2000
   -0.9485   -3.7890    0.0000 C   0  0  0  0  0  0  0  0  0  0  0  0
   -0.9485   -2.9640    0.0000 C   0  0  0  0  0  0  0  0  0  0  0  0
   -1.6630   -2.5515    0.0000 C   0  0  0  0  0  0  0  0  0  0  0  0
   -1.6630   -1.7265    0.0000 C   0  0  0  0  0  0  0  0  0  0  0  0
   -0.9485   -1.3140    0.0000 C   0  0  0  0  0  0  0  0  0  0  0  0
   -0.2341   -1.7265    0.0000 C   0  0  0  0  0  0  0  0  0  0  0  0
   -0.2341   -2.5515    0.0000 C   0  0  0  0  0  0  0  0  0  0  0  0
    0.5505   -2.8064    0.0000 N   0  0  0  0  0  0  0  0  0  0  0  0
    1.0355   -2.1390    0.0000 C   0  0  0  0  0  0  0  0  0  0  0  0
    0.5505   -1.4715    0.0000 N   0  0  0  0  0  0  0  0  0  0  0  0
    0.8055   -0.6869    0.0000 C   0  0  0  0  0  0  0  0  0  0  0  0
    0.2535   -0.0738    0.0000 C   0  0  0  0  0  0  0  0  0  0  0  0
    0.5084    0.7108    0.0000 C   0  0  0  0  0  0  0  0  0  0  0  0
    1.3259    0.8216    0.0000 C   0  0  0  0  0  0  0  0  0  0  0  0
    1.7277    0.1010    0.0000 C   0  0  0  0  0  0  0  0  0  0  0  0
    2.5526    0.0887    0.0000 C   0  0  0  0  0  0  0  0  0  0  0  0
    2.9757    0.7969    0.0000 C   0  0  0  0  0  0  0  0  0  0  0  0
    2.5740    1.5174    0.0000 C   0  0  0  0  0  0  0  0  0  0  0  0
    1.7491    1.5298    0.0000 C   0  0  0  0  0  0  0  0  0  0  0  0
    1.4592    2.3022    0.0000 C   0  0  0  0  0  0  0  0  0  0  0  0
    0.6746    2.5571    0.0000 O   0  0  0  0  0  0  0  0  0  0  0  0
   -0.0140    2.1026    0.0000 C   0  0  0  0  0  0  0  0  0  0  0  0
   -0.6886    2.5775    0.0000 C   0  0  0  0  0  0  0  0  0  0  0  0
   -1.4372    2.2307    0.0000 C   0  0  0  0  0  0  0  0  0  0  0  0
   -1.5111    1.4090    0.0000 C   0  0  0  0  0  0  0  0  0  0  0  0
   -0.8365    0.9341    0.0000 C   0  0  0  0  0  0  0  0  0  0  0  0
   -0.0879    1.2809    0.0000 C   0  0  0  0  0  0  0  0  0  0  0  0
   -2.2597    1.0622    0.0000 C   0  0  0  0  0  0  0  0  0  0  0  0
   -2.3336    0.2406    0.0000 O   0  0  0  0  0  0  0  0  0  0  0  0
   -2.9343    1.5371    0.0000 O   0  0  0  0  0  0  0  0  0  0  0  0
  1  2  1  0  0  0  0
  2  3  1  0  0  0  0
  3  4  2  0  0  0  0
  4  5  1  0  0  0  0
  5  6  2  0  0  0  0
  6  7  1  0  0  0  0
  2  7  2  0  0  0  0
  7  8  1  0  0  0  0
  8  9  2  0  0  0  0
  9 10  1  0  0  0  0
  6 10  1  0  0  0  0
 10 11  1  0  0  0  0
 11 12  1  0  0  0  0
 12 13  2  0  0  0  0
 13 14  1  0  0  0  0
 14 15  1  0  0  0  0
 15 16  2  0  0  0  0
 16 17  1  0  0  0  0
 17 18  2  0  0  0  0
 18 19  1  0  0  0  0
 14 19  2  0  0  0  0
 19 20  1  0  0  0  0
 20 21  1  0  0  0  0
 21 22  1  0  0  0  0
 22 23  1  0  0  0  0
 23 24  2  0  0  0  0
 24 25  1  0  0  0  0
 25 26  2  0  0  0  0
 26 27  1  0  0  0  0
 13 27  1  0  0  0  0
 22 27  2  0  0  0  0
 25 28  1  0  0  0  0
 28 29  2  0  0  0  0
 28 30  1  0  0  0  0
M  END
>  <Name>
CHEMBL117242

>  <Target_Uniprot>
P21731

>  <CHEMBL Canonical SMILES>
Cc1cccc2c1ncn2C\C=C\3/c4ccccc4COc5ccc(cc35)C(=O)O

>  <PubMed ID>
1388208

$$$$

  Marvin  08031817322D          

 26 29  0  0  0  0            999 V2000
   -2.5726   -0.1495    0.0000 O   0  0  0  0  0  0  0  0  0  0  0  0
   -2.0206   -0.7626    0.0000 C   0  0  0  0  0  0  0  0  0  0  0  0
   -2.2755   -1.5472    0.0000 O   0  0  0  0  0  0  0  0  0  0  0  0
   -1.2136   -0.5911    0.0000 C   0  0  0  0  0  0  0  0  0  0  0  0
   -0.9587    0.1936    0.0000 C   0  0  0  0  0  0  0  0  0  0  0  0
   -1.4436    0.8610    0.0000 C   0  0  0  0  0  0  0  0  0  0  0  0
   -0.9587    1.5284    0.0000 C   0  0  0  0  0  0  0  0  0  0  0  0
   -0.1741    1.2735    0.0000 N   0  0  0  0  0  0  0  0  0  0  0  0
   -0.1741    0.4485    0.0000 C   0  0  0  0  0  0  0  0  0  0  0  0
    0.6106    0.1936    0.0000 C   0  0  0  0  0  0  0  0  0  0  0  0
    0.8655   -0.5911    0.0000 S   0  0  0  0  0  0  0  0  0  0  0  0
    0.3135   -1.2042    0.0000 C   0  0  0  0  0  0  0  0  0  0  0  0
   -0.4935   -1.0326    0.0000 C   0  0  0  0  0  0  0  0  0  0  0  0
   -1.0455   -1.6457    0.0000 C   0  0  0  0  0  0  0  0  0  0  0  0
   -0.7906   -2.4303    0.0000 C   0  0  0  0  0  0  0  0  0  0  0  0
   -1.3426   -3.0434    0.0000 Cl  0  0  0  0  0  0  0  0  0  0  0  0
    0.0164   -2.6019    0.0000 C   0  0  0  0  0  0  0  0  0  0  0  0
    0.5684   -1.9888    0.0000 C   0  0  0  0  0  0  0  0  0  0  0  0
    1.0955    0.8610    0.0000 C   0  0  0  0  0  0  0  0  0  0  0  0
    1.9160    0.9472    0.0000 C   0  0  0  0  0  0  0  0  0  0  0  0
    2.4009    0.2798    0.0000 Br  0  0  0  0  0  0  0  0  0  0  0  0
    2.2515    1.7009    0.0000 C   0  0  0  0  0  0  0  0  0  0  0  0
    1.7666    2.3683    0.0000 C   0  0  0  0  0  0  0  0  0  0  0  0
    2.1022    3.1220    0.0000 F   0  0  0  0  0  0  0  0  0  0  0  0
    0.9461    2.2821    0.0000 C   0  0  0  0  0  0  0  0  0  0  0  0
    0.6106    1.5284    0.0000 C   0  0  0  0  0  0  0  0  0  0  0  0
  1  2  1  0  0  0  0
  2  3  2  0  0  0  0
  2  4  1  0  0  0  0
  4  5  1  0  0  0  0
  5  6  1  0  0  0  0
  6  7  1  0  0  0  0
  7  8  1  0  0  0  0
  8  9  1  0  0  0  0
  5  9  1  0  0  0  0
  9 10  2  0  0  0  0
 10 11  1  0  0  0  0
 11 12  1  0  0  0  0
 12 13  1  0  0  0  0
 13 14  2  0  0  0  0
 14 15  1  0  0  0  0
 15 16  1  0  0  0  0
 15 17  2  0  0  0  0
 17 18  1  0  0  0  0
 12 18  2  0  0  0  0
 10 19  1  0  0  0  0
 19 20  1  0  0  0  0
 20 21  1  0  0  0  0
 20 22  2  0  0  0  0
 22 23  1  0  0  0  0
 23 24  1  0  0  0  0
 23 25  2  0  0  0  0
 25 26  1  0  0  0  0
  8 26  1  0  0  0  0
 19 26  2  0  0  0  0
M  END
>  <Name>
CHEMBL258968

>  <Target_Uniprot>
P21731

>  <CHEMBL Canonical SMILES>
OC(=O)CC1CCn2c1c(Sc3ccc(Cl)cc3)c4c(Br)cc(F)cc24

>  <PubMed ID>
18359630

$$$$

  Marvin  08031817322D          

 25 28  0  0  0  0            999 V2000
   -2.4766   -0.1383    0.0000 O   0  0  0  0  0  0  0  0  0  0  0  0
   -1.9246   -0.7514    0.0000 C   0  0  0  0  0  0  0  0  0  0  0  0
   -2.1795   -1.5360    0.0000 O   0  0  0  0  0  0  0  0  0  0  0  0
   -1.1176   -0.5799    0.0000 C   0  0  0  0  0  0  0  0  0  0  0  0
   -0.8626    0.2047    0.0000 C   0  0  0  0  0  0  0  0  0  0  0  0
   -1.3476    0.8722    0.0000 C   0  0  0  0  0  0  0  0  0  0  0  0
   -0.8626    1.5396    0.0000 C   0  0  0  0  0  0  0  0  0  0  0  0
   -0.0780    1.2847    0.0000 N   0  0  0  0  0  0  0  0  0  0  0  0
   -0.0780    0.4597    0.0000 C   0  0  0  0  0  0  0  0  0  0  0  0
    0.7066    0.2047    0.0000 C   0  0  0  0  0  0  0  0  0  0  0  0
    0.9615   -0.5799    0.0000 S   0  0  0  0  0  0  0  0  0  0  0  0
    0.4095   -1.1930    0.0000 C   0  0  0  0  0  0  0  0  0  0  0  0
   -0.3975   -1.0214    0.0000 C   0  0  0  0  0  0  0  0  0  0  0  0
   -0.9495   -1.6345    0.0000 C   0  0  0  0  0  0  0  0  0  0  0  0
   -0.6946   -2.4192    0.0000 C   0  0  0  0  0  0  0  0  0  0  0  0
   -1.2466   -3.0323    0.0000 Cl  0  0  0  0  0  0  0  0  0  0  0  0
    0.1124   -2.5907    0.0000 C   0  0  0  0  0  0  0  0  0  0  0  0
    0.6644   -1.9776    0.0000 C   0  0  0  0  0  0  0  0  0  0  0  0
    1.1915    0.8722    0.0000 C   0  0  0  0  0  0  0  0  0  0  0  0
    2.0120    0.9584    0.0000 C   0  0  0  0  0  0  0  0  0  0  0  0
    2.3476    1.7121    0.0000 C   0  0  0  0  0  0  0  0  0  0  0  0
    1.8626    2.3795    0.0000 C   0  0  0  0  0  0  0  0  0  0  0  0
    2.1982    3.1332    0.0000 F   0  0  0  0  0  0  0  0  0  0  0  0
    1.0422    2.2933    0.0000 C   0  0  0  0  0  0  0  0  0  0  0  0
    0.7066    1.5396    0.0000 C   0  0  0  0  0  0  0  0  0  0  0  0
  1  2  1  0  0  0  0
  2  3  2  0  0  0  0
  2  4  1  0  0  0  0
  4  5  1  0  0  0  0
  5  6  1  0  0  0  0
  6  7  1  0  0  0  0
  7  8  1  0  0  0  0
  8  9  1  0  0  0  0
  5  9  1  0  0  0  0
  9 10  2  0  0  0  0
 10 11  1  0  0  0  0
 11 12  1  0  0  0  0
 12 13  1  0  0  0  0
 13 14  2  0  0  0  0
 14 15  1  0  0  0  0
 15 16  1  0  0  0  0
 15 17  2  0  0  0  0
 17 18  1  0  0  0  0
 12 18  2  0  0  0  0
 10 19  1  0  0  0  0
 19 20  1  0  0  0  0
 20 21  2  0  0  0  0
 21 22  1  0  0  0  0
 22 23  1  0  0  0  0
 22 24  2  0  0  0  0
 24 25  1  0  0  0  0
  8 25  1  0  0  0  0
 19 25  2  0  0  0  0
M  END
>  <Name>
CHEMBL264421

>  <Target_Uniprot>
P21731

>  <CHEMBL Canonical SMILES>
OC(=O)CC1CCn2c1c(Sc3ccc(Cl)cc3)c4ccc(F)cc24

>  <PubMed ID>
18359630

$$$$

  Marvin  08031817322D          

 37 42  0  0  0  0            999 V2000
    1.6574    0.1958    0.0000 O   0  0  0  0  0  0  0  0  0  0  0  0
    1.6574    1.0208    0.0000 C   0  0  0  0  0  0  0  0  0  0  0  0
    2.3718    1.4333    0.0000 C   0  0  0  0  0  0  0  0  0  0  0  0
    3.0863    1.0208    0.0000 C   0  0  0  0  0  0  0  0  0  0  0  0
    3.8008    1.4333    0.0000 C   0  0  0  0  0  0  0  0  0  0  0  0
    3.8008    2.2583    0.0000 C   0  0  0  0  0  0  0  0  0  0  0  0
    3.0863    2.6708    0.0000 C   0  0  0  0  0  0  0  0  0  0  0  0
    2.3718    2.2583    0.0000 C   0  0  0  0  0  0  0  0  0  0  0  0
    0.9429    1.4333    0.0000 C   0  0  0  0  0  0  0  0  0  0  0  0
    0.9429    2.2583    0.0000 C   0  0  0  0  0  0  0  0  0  0  0  0
    0.2284    2.6708    0.0000 C   0  0  0  0  0  0  0  0  0  0  0  0
   -0.4861    2.2583    0.0000 C   0  0  0  0  0  0  0  0  0  0  0  0
   -1.2707    2.5132    0.0000 N   0  0  0  0  0  0  0  0  0  0  0  0
   -1.7556    1.8458    0.0000 C   0  0  0  0  0  0  0  0  0  0  0  0
   -1.2707    1.1783    0.0000 N   0  0  0  0  0  0  0  0  0  0  0  0
   -1.5256    0.3937    0.0000 C   0  0  0  0  0  0  0  0  0  0  0  0
   -0.9736   -0.2194    0.0000 C   0  0  0  0  0  0  0  0  0  0  0  0
   -1.2285   -1.0040    0.0000 C   0  0  0  0  0  0  0  0  0  0  0  0
   -2.0461   -1.1147    0.0000 C   0  0  0  0  0  0  0  0  0  0  0  0
   -2.4478   -0.3942    0.0000 C   0  0  0  0  0  0  0  0  0  0  0  0
   -3.2727   -0.3818    0.0000 C   0  0  0  0  0  0  0  0  0  0  0  0
   -3.6959   -1.0901    0.0000 C   0  0  0  0  0  0  0  0  0  0  0  0
   -3.2941   -1.8106    0.0000 C   0  0  0  0  0  0  0  0  0  0  0  0
   -2.4692   -1.8230    0.0000 C   0  0  0  0  0  0  0  0  0  0  0  0
   -2.1793   -2.5954    0.0000 C   0  0  0  0  0  0  0  0  0  0  0  0
   -1.3947   -2.8503    0.0000 O   0  0  0  0  0  0  0  0  0  0  0  0
   -0.7062   -2.3958    0.0000 C   0  0  0  0  0  0  0  0  0  0  0  0
   -0.0316   -2.8707    0.0000 C   0  0  0  0  0  0  0  0  0  0  0  0
    0.7170   -2.5239    0.0000 C   0  0  0  0  0  0  0  0  0  0  0  0
    0.7910   -1.7022    0.0000 C   0  0  0  0  0  0  0  0  0  0  0  0
    0.1164   -1.2273    0.0000 C   0  0  0  0  0  0  0  0  0  0  0  0
   -0.6322   -1.5741    0.0000 C   0  0  0  0  0  0  0  0  0  0  0  0
    1.5395   -1.3554    0.0000 C   0  0  0  0  0  0  0  0  0  0  0  0
    1.6135   -0.5337    0.0000 O   0  0  0  0  0  0  0  0  0  0  0  0
    2.2142   -1.8303    0.0000 O   0  0  0  0  0  0  0  0  0  0  0  0
   -0.4861    1.4333    0.0000 C   0  0  0  0  0  0  0  0  0  0  0  0
    0.2284    1.0208    0.0000 C   0  0  0  0  0  0  0  0  0  0  0  0
  1  2  1  0  0  0  0
  2  3  1  0  0  0  0
  3  4  1  0  0  0  0
  4  5  2  0  0  0  0
  5  6  1  0  0  0  0
  6  7  2  0  0  0  0
  7  8  1  0  0  0  0
  3  8  2  0  0  0  0
  2  9  1  0  0  0  0
  9 10  1  0  0  0  0
 10 11  2  0  0  0  0
 11 12  1  0  0  0  0
 12 13  1  0  0  0  0
 13 14  2  0  0  0  0
 14 15  1  0  0  0  0
 15 16  1  0  0  0  0
 16 17  1  0  0  0  0
 17 18  2  0  0  0  0
 18 19  1  0  0  0  0
 19 20  1  0  0  0  0
 20 21  2  0  0  0  0
 21 22  1  0  0  0  0
 22 23  2  0  0  0  0
 23 24  1  0  0  0  0
 19 24  2  0  0  0  0
 24 25  1  0  0  0  0
 25 26  1  0  0  0  0
 26 27  1  0  0  0  0
 27 28  1  0  0  0  0
 28 29  2  0  0  0  0
 29 30  1  0  0  0  0
 30 31  2  0  0  0  0
 31 32  1  0  0  0  0
 18 32  1  0  0  0  0
 27 32  2  0  0  0  0
 30 33  1  0  0  0  0
 33 34  2  0  0  0  0
 33 35  1  0  0  0  0
 15 36  1  0  0  0  0
 12 36  2  0  0  0  0
 36 37  1  0  0  0  0
  9 37  2  0  0  0  0
M  END
>  <Name>
CHEMBL325868

>  <Target_Uniprot>
P21731

>  <CHEMBL Canonical SMILES>
OC(c1ccccc1)c2ccc3ncn(C\C=C\4/c5ccccc5COc6ccc(cc46)C(=O)O)c3c2

>  <PubMed ID>
1388208

$$$$

  Marvin  08031817322D          

 27 29  0  0  1  0            999 V2000
    2.9108   -1.4361    0.0000 C   0  0  0  0  0  0  0  0  0  0  0  0
    2.1963   -1.0236    0.0000 C   0  0  0  0  0  0  0  0  0  0  0  0
    2.1963   -0.1986    0.0000 C   0  0  0  0  0  0  0  0  0  0  0  0
    1.4819    0.2139    0.0000 C   0  0  0  0  0  0  0  0  0  0  0  0
    0.7674   -0.1986    0.0000 C   0  0  0  0  0  0  0  0  0  0  0  0
    0.0529    0.2139    0.0000 C   0  0  0  0  0  0  0  0  0  0  0  0
   -0.6615   -0.1986    0.0000 C   0  0  1  0  0  0  0  0  0  0  0  0
   -0.6615   -1.0236    0.0000 C   0  0  0  0  0  0  0  0  0  0  0  0
    0.0529   -1.4361    0.0000 C   0  0  0  0  0  0  0  0  0  0  0  0
    0.7674   -1.0236    0.0000 C   0  0  0  0  0  0  0  0  0  0  0  0
    1.4819   -1.4361    0.0000 C   0  0  0  0  0  0  0  0  0  0  0  0
    1.4819   -2.2611    0.0000 C   0  0  0  0  0  0  0  0  0  0  0  0
    0.7674   -2.6736    0.0000 C   0  0  0  0  0  0  0  0  0  0  0  0
    0.7674   -3.4986    0.0000 C   0  0  0  0  0  0  0  0  0  0  0  0
    1.4819   -3.9111    0.0000 O   0  0  0  0  0  0  0  0  0  0  0  0
    0.0529   -3.9111    0.0000 O   0  0  0  0  0  0  0  0  0  0  0  0
   -1.3760    0.2139    0.0000 N   0  0  0  0  0  0  0  0  0  0  0  0
   -1.3760    1.0389    0.0000 S   0  0  0  0  0  0  0  0  0  0  0  0
   -2.2010    1.0389    0.0000 O   0  0  0  0  0  0  0  0  0  0  0  0
   -0.5510    1.0389    0.0000 O   0  0  0  0  0  0  0  0  0  0  0  0
   -1.3760    1.8639    0.0000 C   0  0  0  0  0  0  0  0  0  0  0  0
   -0.6615    2.2764    0.0000 C   0  0  0  0  0  0  0  0  0  0  0  0
   -0.6615    3.1014    0.0000 C   0  0  0  0  0  0  0  0  0  0  0  0
   -1.3760    3.5139    0.0000 C   0  0  0  0  0  0  0  0  0  0  0  0
   -1.3760    4.3389    0.0000 Cl  0  0  0  0  0  0  0  0  0  0  0  0
   -2.0905    3.1014    0.0000 C   0  0  0  0  0  0  0  0  0  0  0  0
   -2.0905    2.2764    0.0000 C   0  0  0  0  0  0  0  0  0  0  0  0
  1  2  1  0  0  0  0
  2  3  1  0  0  0  0
  3  4  2  0  0  0  0
  4  5  1  0  0  0  0
  5  6  1  0  0  0  0
  6  7  1  0  0  0  0
  7  8  1  0  0  0  0
  8  9  1  0  0  0  0
  9 10  1  0  0  0  0
  5 10  2  0  0  0  0
 10 11  1  0  0  0  0
  2 11  2  0  0  0  0
 11 12  1  0  0  0  0
 12 13  1  0  0  0  0
 13 14  1  0  0  0  0
 14 15  2  0  0  0  0
 14 16  1  0  0  0  0
  7 17  1  1  0  0  0
 17 18  1  0  0  0  0
 18 19  2  0  0  0  0
 18 20  2  0  0  0  0
 18 21  1  0  0  0  0
 21 22  1  0  0  0  0
 22 23  2  0  0  0  0
 23 24  1  0  0  0  0
 24 25  1  0  0  0  0
 24 26  2  0  0  0  0
 26 27  1  0  0  0  0
 21 27  2  0  0  0  0
M  END
>  <Name>
CHEMBL2107786

>  <Target_Uniprot>
P21731

>  <CHEMBL Canonical SMILES>
Cc1ccc2C[C@@H](CCc2c1CCC(=O)O)NS(=O)(=O)c3ccc(Cl)cc3

>  <PubMed ID>
25221659

$$$$

  Marvin  08031817322D          

 37 41  0  0  0  0            999 V2000
    1.1471   -3.7429    0.0000 O   0  0  0  0  0  0  0  0  0  0  0  0
    0.5498   -3.1689    0.0000 C   0  0  0  0  0  0  0  0  0  0  0  0
   -0.2686   -3.2862    0.0000 O   0  0  0  0  0  0  0  0  0  0  0  0
    0.8721   -2.4140    0.0000 C   0  0  0  0  0  0  0  0  0  0  0  0
    1.6560   -2.1582    0.0000 C   0  0  0  0  0  0  0  0  0  0  0  0
    2.2042   -2.7772    0.0000 C   0  0  0  0  0  0  0  0  0  0  0  0
    3.0201   -2.6113    0.0000 C   0  0  0  0  0  0  0  0  0  0  0  0
    3.2812   -1.8197    0.0000 C   0  0  0  0  0  0  0  0  0  0  0  0
    2.7323   -1.2057    0.0000 C   0  0  0  0  0  0  0  0  0  0  0  0
    2.9092   -0.4136    0.0000 C   0  0  0  0  0  0  0  0  0  0  0  0
    2.4717    0.2436    0.0000 C   0  0  0  0  0  0  0  0  0  0  0  0
    2.6559    0.9992    0.0000 C   0  0  0  0  0  0  0  0  0  0  0  0
    3.5298    1.1817    0.0000 C   0  0  0  0  0  0  0  0  0  0  0  0
    4.0749    2.0021    0.0000 C   0  0  0  0  0  0  0  0  0  0  0  0
    3.5219    2.7138    0.0000 C   0  0  0  0  0  0  0  0  0  0  0  0
    2.8530    2.2722    0.0000 C   0  0  0  0  0  0  0  0  0  0  0  0
    3.6770    1.7884    0.0000 O   0  0  0  0  0  0  0  0  0  0  0  0
    2.2531    1.7077    0.0000 C   0  0  0  0  0  0  0  0  0  0  0  0
    1.3711    1.6938    0.0000 C   0  0  0  0  0  0  0  0  0  0  0  0
    0.8753    2.3667    0.0000 O   0  0  0  0  0  0  0  0  0  0  0  0
    0.0850    2.1114    0.0000 C   0  0  0  0  0  0  0  0  0  0  0  0
    0.0852    1.2833    0.0000 C   0  0  0  0  0  0  0  0  0  0  0  0
    0.8712    1.0224    0.0000 N   0  0  0  0  0  0  0  0  0  0  0  0
   -0.5145    0.7239    0.0000 C   0  0  0  0  0  0  0  0  0  0  0  0
   -0.5108   -0.0978    0.0000 O   0  0  0  0  0  0  0  0  0  0  0  0
   -1.2613    1.0659    0.0000 N   0  0  0  0  0  0  0  0  0  0  0  0
   -1.9938    0.6877    0.0000 C   0  0  0  0  0  0  0  0  0  0  0  0
   -2.7819    0.9267    0.0000 C   0  0  0  0  0  0  0  0  0  0  0  0
   -3.4931    0.5236    0.0000 C   0  0  0  0  0  0  0  0  0  0  0  0
   -4.2586    0.7774    0.0000 C   0  0  0  0  0  0  0  0  0  0  0  0
   -4.9224    0.3176    0.0000 C   0  0  0  0  0  0  0  0  0  0  0  0
   -5.6744    0.6543    0.0000 C   0  0  0  0  0  0  0  0  0  0  0  0
   -6.3489    0.1634    0.0000 C   0  0  0  0  0  0  0  0  0  0  0  0
   -6.2595   -0.6617    0.0000 C   0  0  0  0  0  0  0  0  0  0  0  0
   -5.5001   -0.9964    0.0000 C   0  0  0  0  0  0  0  0  0  0  0  0
   -4.8283   -0.5020    0.0000 C   0  0  0  0  0  0  0  0  0  0  0  0
    1.9192   -1.3710    0.0000 C   0  0  0  0  0  0  0  0  0  0  0  0
  1  2  1  0  0  0  0
  2  3  2  0  0  0  0
  2  4  1  0  0  0  0
  4  5  1  0  0  0  0
  5  6  1  0  0  0  0
  6  7  2  0  0  0  0
  7  8  1  0  0  0  0
  8  9  2  0  0  0  0
  9 10  1  0  0  0  0
 10 11  1  0  0  0  0
 11 12  1  0  0  0  0
 12 13  1  0  0  0  0
 13 14  1  0  0  0  0
 14 15  1  0  0  0  0
 15 16  1  0  0  0  0
 16 17  1  0  0  0  0
 13 17  1  0  0  0  0
 16 18  1  0  0  0  0
 12 18  1  0  0  0  0
 18 19  1  0  0  0  0
 19 20  1  0  0  0  0
 20 21  1  0  0  0  0
 21 22  2  0  0  0  0
 22 23  1  0  0  0  0
 19 23  2  0  0  0  0
 22 24  1  0  0  0  0
 24 25  2  0  0  0  0
 24 26  1  0  0  0  0
 26 27  1  0  0  0  0
 27 28  1  0  0  0  0
 28 29  1  0  0  0  0
 29 30  1  0  0  0  0
 30 31  1  0  0  0  0
 31 32  1  0  0  0  0
 32 33  1  0  0  0  0
 33 34  1  0  0  0  0
 34 35  1  0  0  0  0
 35 36  1  0  0  0  0
 31 36  1  0  0  0  0
  9 37  1  0  0  0  0
  5 37  2  0  0  0  0
M  END
>  <Name>
CHEMBL280786

>  <Target_Uniprot>
P21731

>  <CHEMBL Canonical SMILES>
OC(=O)Cc1cccc(CCC2C3CCC(O3)C2c4occ(n4)C(=O)NCCCCC5CCCCC5)c1

>  <PubMed ID>
8496908

$$$$

  Marvin  08031817322D          

 25 27  0  0  0  0            999 V2000
    0.8874    1.6696    0.0000 C   0  0  0  0  0  0  0  0  0  0  0  0
    1.6019    1.2571    0.0000 C   0  0  0  0  0  0  0  0  0  0  0  0
    2.3163    0.8446    0.0000 C   0  0  0  0  0  0  0  0  0  0  0  0
    2.0144    1.9716    0.0000 C   0  0  0  0  0  0  0  0  0  0  0  0
    2.8394    1.9716    0.0000 C   0  0  0  0  0  0  0  0  0  0  0  0
    3.2519    1.2571    0.0000 O   0  0  0  0  0  0  0  0  0  0  0  0
    3.2519    2.6861    0.0000 O   0  0  0  0  0  0  0  0  0  0  0  0
    1.1894    0.5427    0.0000 C   0  0  0  0  0  0  0  0  0  0  0  0
    0.3644    0.5427    0.0000 C   0  0  0  0  0  0  0  0  0  0  0  0
   -0.1206    1.2101    0.0000 N   0  0  0  0  0  0  0  0  0  0  0  0
   -0.9052    0.9552    0.0000 C   0  0  0  0  0  0  0  0  0  0  0  0
   -1.6197    1.3677    0.0000 C   0  0  0  0  0  0  0  0  0  0  0  0
   -2.3341    0.9552    0.0000 C   0  0  0  0  0  0  0  0  0  0  0  0
   -2.3341    0.1302    0.0000 C   0  0  0  0  0  0  0  0  0  0  0  0
   -1.6197   -0.2823    0.0000 C   0  0  0  0  0  0  0  0  0  0  0  0
   -0.9052    0.1302    0.0000 C   0  0  0  0  0  0  0  0  0  0  0  0
   -0.1206   -0.1248    0.0000 N   0  0  0  0  0  0  0  0  0  0  0  0
    0.1344   -0.9094    0.0000 C   0  0  0  0  0  0  0  0  0  0  0  0
   -0.4177   -1.5225    0.0000 C   0  0  0  0  0  0  0  0  0  0  0  0
   -1.2246   -1.3510    0.0000 C   0  0  0  0  0  0  0  0  0  0  0  0
   -1.7767   -1.9640    0.0000 C   0  0  0  0  0  0  0  0  0  0  0  0
   -1.5217   -2.7487    0.0000 C   0  0  0  0  0  0  0  0  0  0  0  0
   -2.0738   -3.3618    0.0000 Br  0  0  0  0  0  0  0  0  0  0  0  0
   -0.7148   -2.9202    0.0000 C   0  0  0  0  0  0  0  0  0  0  0  0
   -0.1627   -2.3071    0.0000 C   0  0  0  0  0  0  0  0  0  0  0  0
  1  2  1  0  0  0  0
  2  3  1  0  0  0  0
  2  4  1  0  0  0  0
  4  5  1  0  0  0  0
  5  6  2  0  0  0  0
  5  7  1  0  0  0  0
  2  8  1  0  0  0  0
  8  9  1  0  0  0  0
  9 10  2  0  0  0  0
 10 11  1  0  0  0  0
 11 12  1  0  0  0  0
 12 13  2  0  0  0  0
 13 14  1  0  0  0  0
 14 15  2  0  0  0  0
 15 16  1  0  0  0  0
 11 16  2  0  0  0  0
 16 17  1  0  0  0  0
  9 17  1  0  0  0  0
 17 18  1  0  0  0  0
 18 19  1  0  0  0  0
 19 20  1  0  0  0  0
 20 21  2  0  0  0  0
 21 22  1  0  0  0  0
 22 23  1  0  0  0  0
 22 24  2  0  0  0  0
 24 25  1  0  0  0  0
 19 25  2  0  0  0  0
M  END
>  <Name>
CHEMBL275382

>  <Target_Uniprot>
P21731

>  <CHEMBL Canonical SMILES>
CC(C)(CC(=O)O)Cc1nc2ccccc2n1Cc3ccc(Br)cc3

>  <PubMed ID>
8487256

$$$$

  Marvin  08031817322D          

 39 42  0  0  1  0            999 V2000
    1.9005   -2.7336    0.0000 O   0  0  0  0  0  0  0  0  0  0  0  0
    1.6456   -3.5182    0.0000 C   0  0  0  0  0  0  0  0  0  0  0  0
    2.1976   -4.1313    0.0000 O   0  0  0  0  0  0  0  0  0  0  0  0
    0.8386   -3.6897    0.0000 C   0  0  0  0  0  0  0  0  0  0  0  0
    0.2866   -3.0767    0.0000 C   0  0  0  0  0  0  0  0  0  0  0  0
   -0.5204   -3.2482    0.0000 C   0  0  0  0  0  0  0  0  0  0  0  0
   -1.0724   -2.6351    0.0000 C   0  0  0  0  0  0  0  0  0  0  0  0
   -1.8794   -2.8066    0.0000 C   0  0  0  0  0  0  0  0  0  0  0  0
   -2.4315   -2.1935    0.0000 C   0  0  0  0  0  0  0  0  0  0  0  0
   -2.1765   -1.4089    0.0000 C   0  0  0  0  0  0  0  0  0  0  0  0
   -1.3695   -1.2374    0.0000 C   0  0  0  0  0  0  0  0  0  0  0  0
   -1.1146   -0.4527    0.0000 C   0  0  0  0  0  0  0  0  0  0  0  0
   -1.6666    0.1603    0.0000 C   0  0  0  0  0  0  0  0  0  0  0  0
   -2.4736   -0.0112    0.0000 C   0  0  0  0  0  0  0  0  0  0  0  0
   -2.7285   -0.7958    0.0000 C   0  0  0  0  0  0  0  0  0  0  0  0
   -1.4117    0.9450    0.0000 C   0  0  0  0  0  0  0  0  0  0  0  0
   -0.6271    1.1999    0.0000 N   0  0  0  0  0  0  0  0  0  0  0  0
   -0.6271    2.0249    0.0000 C   0  0  1  0  0  0  0  0  0  0  0  0
   -1.4117    2.2798    0.0000 C   0  0  0  0  0  0  0  0  0  0  0  0
   -1.8966    1.6124    0.0000 O   0  0  0  0  0  0  0  0  0  0  0  0
    0.0404    2.5098    0.0000 C   0  0  0  0  0  0  0  0  0  0  0  0
   -0.0459    3.3303    0.0000 O   0  0  0  0  0  0  0  0  0  0  0  0
    0.7940    2.1743    0.0000 N   0  0  0  0  0  0  0  0  0  0  0  0
    1.4615    2.6592    0.0000 C   0  0  0  0  0  0  0  0  0  0  0  0
    2.2152    2.3236    0.0000 C   0  0  0  0  0  0  0  0  0  0  0  0
    2.8826    2.8086    0.0000 C   0  0  0  0  0  0  0  0  0  0  0  0
    3.6363    2.4730    0.0000 C   0  0  0  0  0  0  0  0  0  0  0  0
    4.3037    2.9579    0.0000 C   0  0  0  0  0  0  0  0  0  0  0  0
    5.0574    2.6224    0.0000 C   0  0  0  0  0  0  0  0  0  0  0  0
    5.7248    3.1073    0.0000 C   0  0  0  0  0  0  0  0  0  0  0  0
    5.6386    3.9278    0.0000 C   0  0  0  0  0  0  0  0  0  0  0  0
    4.8849    4.2633    0.0000 C   0  0  0  0  0  0  0  0  0  0  0  0
    4.2175    3.7784    0.0000 C   0  0  0  0  0  0  0  0  0  0  0  0
   -3.2384   -2.3650    0.0000 C   0  0  0  0  0  0  0  0  0  0  0  0
   -3.7905   -1.7519    0.0000 C   0  0  0  0  0  0  0  0  0  0  0  0
   -4.5974   -1.9235    0.0000 C   0  0  0  0  0  0  0  0  0  0  0  0
   -4.8524   -2.7081    0.0000 C   0  0  0  0  0  0  0  0  0  0  0  0
   -4.3003   -3.3212    0.0000 N   0  0  0  0  0  0  0  0  0  0  0  0
   -3.4934   -3.1497    0.0000 C   0  0  0  0  0  0  0  0  0  0  0  0
  1  2  1  0  0  0  0
  2  3  2  0  0  0  0
  2  4  1  0  0  0  0
  4  5  1  0  0  0  0
  5  6  1  0  0  0  0
  6  7  1  0  0  0  0
  7  8  1  0  0  0  0
  8  9  2  0  0  0  0
  9 10  1  0  0  0  0
 10 11  1  0  0  0  0
 11 12  2  0  0  0  0
 12 13  1  0  0  0  0
 13 14  2  0  0  0  0
 14 15  1  0  0  0  0
 10 15  2  0  0  0  0
 13 16  1  0  0  0  0
 16 17  2  0  0  0  0
 17 18  1  0  0  0  0
 18 19  1  0  0  0  0
 19 20  1  0  0  0  0
 16 20  1  0  0  0  0
 18 21  1  1  0  0  0
 21 22  2  0  0  0  0
 21 23  1  0  0  0  0
 23 24  1  0  0  0  0
 24 25  1  0  0  0  0
 25 26  1  0  0  0  0
 26 27  1  0  0  0  0
 27 28  1  0  0  0  0
 28 29  1  0  0  0  0
 29 30  1  0  0  0  0
 30 31  1  0  0  0  0
 31 32  1  0  0  0  0
 32 33  1  0  0  0  0
 28 33  1  0  0  0  0
  9 34  1  0  0  0  0
 34 35  1  0  0  0  0
 35 36  2  0  0  0  0
 36 37  1  0  0  0  0
 37 38  2  0  0  0  0
 38 39  1  0  0  0  0
 34 39  2  0  0  0  0
M  END
>  <Name>
CHEMBL58332

>  <Target_Uniprot>
P21731

>  <CHEMBL Canonical SMILES>
OC(=O)CCCC\C=C(/c1ccc(cc1)C2=N[C@@H](CO2)C(=O)NCCCCC3CCCCC3)\c4cccnc4

>  <PubMed ID>
9873463

$$$$

  Marvin  08031817322D          

 39 42  0  0  1  0            999 V2000
    1.9005   -2.7336    0.0000 O   0  0  0  0  0  0  0  0  0  0  0  0
    1.6456   -3.5182    0.0000 C   0  0  0  0  0  0  0  0  0  0  0  0
    2.1976   -4.1313    0.0000 O   0  0  0  0  0  0  0  0  0  0  0  0
    0.8386   -3.6897    0.0000 C   0  0  0  0  0  0  0  0  0  0  0  0
    0.2866   -3.0767    0.0000 C   0  0  0  0  0  0  0  0  0  0  0  0
   -0.5204   -3.2482    0.0000 C   0  0  0  0  0  0  0  0  0  0  0  0
   -1.0724   -2.6351    0.0000 C   0  0  0  0  0  0  0  0  0  0  0  0
   -1.8794   -2.8066    0.0000 C   0  0  0  0  0  0  0  0  0  0  0  0
   -2.4315   -2.1935    0.0000 C   0  0  0  0  0  0  0  0  0  0  0  0
   -2.1765   -1.4089    0.0000 C   0  0  0  0  0  0  0  0  0  0  0  0
   -1.3695   -1.2374    0.0000 C   0  0  0  0  0  0  0  0  0  0  0  0
   -1.1146   -0.4527    0.0000 C   0  0  0  0  0  0  0  0  0  0  0  0
   -1.6666    0.1603    0.0000 C   0  0  0  0  0  0  0  0  0  0  0  0
   -2.4736   -0.0112    0.0000 C   0  0  0  0  0  0  0  0  0  0  0  0
   -2.7285   -0.7958    0.0000 C   0  0  0  0  0  0  0  0  0  0  0  0
   -1.4117    0.9450    0.0000 C   0  0  0  0  0  0  0  0  0  0  0  0
   -0.6271    1.1999    0.0000 N   0  0  0  0  0  0  0  0  0  0  0  0
   -0.6271    2.0249    0.0000 C   0  0  2  0  0  0  0  0  0  0  0  0
   -1.4117    2.2798    0.0000 C   0  0  0  0  0  0  0  0  0  0  0  0
   -1.8966    1.6124    0.0000 O   0  0  0  0  0  0  0  0  0  0  0  0
    0.0404    2.5098    0.0000 C   0  0  0  0  0  0  0  0  0  0  0  0
   -0.0459    3.3303    0.0000 O   0  0  0  0  0  0  0  0  0  0  0  0
    0.7940    2.1743    0.0000 N   0  0  0  0  0  0  0  0  0  0  0  0
    1.4615    2.6592    0.0000 C   0  0  0  0  0  0  0  0  0  0  0  0
    2.2152    2.3236    0.0000 C   0  0  0  0  0  0  0  0  0  0  0  0
    2.8826    2.8086    0.0000 C   0  0  0  0  0  0  0  0  0  0  0  0
    3.6363    2.4730    0.0000 C   0  0  0  0  0  0  0  0  0  0  0  0
    4.3037    2.9579    0.0000 C   0  0  0  0  0  0  0  0  0  0  0  0
    5.0574    2.6224    0.0000 C   0  0  0  0  0  0  0  0  0  0  0  0
    5.7248    3.1073    0.0000 C   0  0  0  0  0  0  0  0  0  0  0  0
    5.6386    3.9278    0.0000 C   0  0  0  0  0  0  0  0  0  0  0  0
    4.8849    4.2633    0.0000 C   0  0  0  0  0  0  0  0  0  0  0  0
    4.2175    3.7784    0.0000 C   0  0  0  0  0  0  0  0  0  0  0  0
   -3.2384   -2.3650    0.0000 C   0  0  0  0  0  0  0  0  0  0  0  0
   -3.7905   -1.7519    0.0000 C   0  0  0  0  0  0  0  0  0  0  0  0
   -4.5974   -1.9235    0.0000 C   0  0  0  0  0  0  0  0  0  0  0  0
   -4.8524   -2.7081    0.0000 C   0  0  0  0  0  0  0  0  0  0  0  0
   -4.3003   -3.3212    0.0000 N   0  0  0  0  0  0  0  0  0  0  0  0
   -3.4934   -3.1497    0.0000 C   0  0  0  0  0  0  0  0  0  0  0  0
  1  2  1  0  0  0  0
  2  3  2  0  0  0  0
  2  4  1  0  0  0  0
  4  5  1  0  0  0  0
  5  6  1  0  0  0  0
  6  7  1  0  0  0  0
  7  8  1  0  0  0  0
  8  9  2  0  0  0  0
  9 10  1  0  0  0  0
 10 11  1  0  0  0  0
 11 12  2  0  0  0  0
 12 13  1  0  0  0  0
 13 14  2  0  0  0  0
 14 15  1  0  0  0  0
 10 15  2  0  0  0  0
 13 16  1  0  0  0  0
 16 17  2  0  0  0  0
 17 18  1  0  0  0  0
 18 19  1  0  0  0  0
 19 20  1  0  0  0  0
 16 20  1  0  0  0  0
 18 21  1  6  0  0  0
 21 22  2  0  0  0  0
 21 23  1  0  0  0  0
 23 24  1  0  0  0  0
 24 25  1  0  0  0  0
 25 26  1  0  0  0  0
 26 27  1  0  0  0  0
 27 28  1  0  0  0  0
 28 29  1  0  0  0  0
 29 30  1  0  0  0  0
 30 31  1  0  0  0  0
 31 32  1  0  0  0  0
 32 33  1  0  0  0  0
 28 33  1  0  0  0  0
  9 34  1  0  0  0  0
 34 35  1  0  0  0  0
 35 36  2  0  0  0  0
 36 37  1  0  0  0  0
 37 38  2  0  0  0  0
 38 39  1  0  0  0  0
 34 39  2  0  0  0  0
M  END
>  <Name>
CHEMBL56778

>  <Target_Uniprot>
P21731

>  <CHEMBL Canonical SMILES>
OC(=O)CCCC\C=C(/c1ccc(cc1)C2=N[C@H](CO2)C(=O)NCCCCC3CCCCC3)\c4cccnc4

>  <PubMed ID>
9873463

$$$$

  Marvin  08031817322D          

 27 29  0  0  0  0            999 V2000
    0.9764    1.7108    0.0000 C   0  0  0  0  0  0  0  0  0  0  0  0
    1.6909    1.2983    0.0000 C   0  0  0  0  0  0  0  0  0  0  0  0
    2.4054    0.8858    0.0000 C   0  0  0  0  0  0  0  0  0  0  0  0
    2.1034    2.0128    0.0000 C   0  0  0  0  0  0  0  0  0  0  0  0
    2.9284    2.0128    0.0000 C   0  0  0  0  0  0  0  0  0  0  0  0
    3.3409    1.2983    0.0000 O   0  0  0  0  0  0  0  0  0  0  0  0
    3.3409    2.7272    0.0000 O   0  0  0  0  0  0  0  0  0  0  0  0
    1.2784    0.5838    0.0000 C   0  0  0  0  0  0  0  0  0  0  0  0
    0.4534    0.5838    0.0000 C   0  0  0  0  0  0  0  0  0  0  0  0
   -0.0315    1.2513    0.0000 N   0  0  0  0  0  0  0  0  0  0  0  0
   -0.8161    0.9963    0.0000 C   0  0  0  0  0  0  0  0  0  0  0  0
   -1.5306    1.4088    0.0000 C   0  0  0  0  0  0  0  0  0  0  0  0
   -2.2451    0.9963    0.0000 C   0  0  0  0  0  0  0  0  0  0  0  0
   -2.9596    1.4088    0.0000 F   0  0  0  0  0  0  0  0  0  0  0  0
   -2.2451    0.1713    0.0000 C   0  0  0  0  0  0  0  0  0  0  0  0
   -1.5306   -0.2412    0.0000 C   0  0  0  0  0  0  0  0  0  0  0  0
   -0.8161    0.1713    0.0000 C   0  0  0  0  0  0  0  0  0  0  0  0
   -0.0315   -0.0836    0.0000 N   0  0  0  0  0  0  0  0  0  0  0  0
    0.2234   -0.8682    0.0000 C   0  0  0  0  0  0  0  0  0  0  0  0
   -0.3286   -1.4813    0.0000 C   0  0  0  0  0  0  0  0  0  0  0  0
   -1.1356   -1.3098    0.0000 C   0  0  0  0  0  0  0  0  0  0  0  0
   -1.6876   -1.9229    0.0000 C   0  0  0  0  0  0  0  0  0  0  0  0
   -1.4327   -2.7075    0.0000 C   0  0  0  0  0  0  0  0  0  0  0  0
   -1.9847   -3.3206    0.0000 Br  0  0  0  0  0  0  0  0  0  0  0  0
   -0.6257   -2.8791    0.0000 C   0  0  0  0  0  0  0  0  0  0  0  0
   -0.0737   -2.2660    0.0000 C   0  0  0  0  0  0  0  0  0  0  0  0
    0.7333   -2.4375    0.0000 F   0  0  0  0  0  0  0  0  0  0  0  0
  1  2  1  0  0  0  0
  2  3  1  0  0  0  0
  2  4  1  0  0  0  0
  4  5  1  0  0  0  0
  5  6  2  0  0  0  0
  5  7  1  0  0  0  0
  2  8  1  0  0  0  0
  8  9  1  0  0  0  0
  9 10  2  0  0  0  0
 10 11  1  0  0  0  0
 11 12  1  0  0  0  0
 12 13  2  0  0  0  0
 13 14  1  0  0  0  0
 13 15  1  0  0  0  0
 15 16  2  0  0  0  0
 16 17  1  0  0  0  0
 11 17  2  0  0  0  0
 17 18  1  0  0  0  0
  9 18  1  0  0  0  0
 18 19  1  0  0  0  0
 19 20  1  0  0  0  0
 20 21  1  0  0  0  0
 21 22  2  0  0  0  0
 22 23  1  0  0  0  0
 23 24  1  0  0  0  0
 23 25  2  0  0  0  0
 25 26  1  0  0  0  0
 20 26  2  0  0  0  0
 26 27  1  0  0  0  0
M  END
>  <Name>
CHEMBL277516

>  <Target_Uniprot>
P21731

>  <CHEMBL Canonical SMILES>
CC(C)(CC(=O)O)Cc1nc2cc(F)ccc2n1Cc3ccc(Br)cc3F

>  <PubMed ID>
8487256

$$$$

  Marvin  08031817322D          

 30 34  0  0  0  0            999 V2000
   -2.3299   -2.9915    0.0000 C   0  0  0  0  0  0  0  0  0  0  0  0
   -1.6154   -2.5790    0.0000 C   0  0  0  0  0  0  0  0  0  0  0  0
   -1.6154   -1.7540    0.0000 C   0  0  0  0  0  0  0  0  0  0  0  0
   -0.9009   -1.3415    0.0000 C   0  0  0  0  0  0  0  0  0  0  0  0
   -0.1864   -1.7540    0.0000 C   0  0  0  0  0  0  0  0  0  0  0  0
   -0.1864   -2.5790    0.0000 C   0  0  0  0  0  0  0  0  0  0  0  0
   -0.9009   -2.9915    0.0000 C   0  0  0  0  0  0  0  0  0  0  0  0
    0.5982   -2.8339    0.0000 N   0  0  0  0  0  0  0  0  0  0  0  0
    1.0831   -2.1665    0.0000 C   0  0  0  0  0  0  0  0  0  0  0  0
    0.5982   -1.4990    0.0000 N   0  0  0  0  0  0  0  0  0  0  0  0
    0.8531   -0.7144    0.0000 C   0  0  0  0  0  0  0  0  0  0  0  0
    0.3011   -0.1013    0.0000 C   0  0  0  0  0  0  0  0  0  0  0  0
    0.5560    0.6833    0.0000 C   0  0  0  0  0  0  0  0  0  0  0  0
    1.3736    0.7941    0.0000 C   0  0  0  0  0  0  0  0  0  0  0  0
    1.7753    0.0735    0.0000 C   0  0  0  0  0  0  0  0  0  0  0  0
    2.6002    0.0612    0.0000 C   0  0  0  0  0  0  0  0  0  0  0  0
    3.0234    0.7694    0.0000 C   0  0  0  0  0  0  0  0  0  0  0  0
    2.6216    1.4899    0.0000 C   0  0  0  0  0  0  0  0  0  0  0  0
    1.7967    1.5023    0.0000 C   0  0  0  0  0  0  0  0  0  0  0  0
    1.5068    2.2747    0.0000 C   0  0  0  0  0  0  0  0  0  0  0  0
    0.7222    2.5296    0.0000 O   0  0  0  0  0  0  0  0  0  0  0  0
    0.0337    2.0751    0.0000 C   0  0  0  0  0  0  0  0  0  0  0  0
   -0.6409    2.5500    0.0000 C   0  0  0  0  0  0  0  0  0  0  0  0
   -1.3895    2.2032    0.0000 C   0  0  0  0  0  0  0  0  0  0  0  0
   -1.4635    1.3815    0.0000 C   0  0  0  0  0  0  0  0  0  0  0  0
   -0.7889    0.9066    0.0000 C   0  0  0  0  0  0  0  0  0  0  0  0
   -0.0403    1.2534    0.0000 C   0  0  0  0  0  0  0  0  0  0  0  0
   -2.2120    1.0347    0.0000 C   0  0  0  0  0  0  0  0  0  0  0  0
   -2.2860    0.2131    0.0000 O   0  0  0  0  0  0  0  0  0  0  0  0
   -2.8867    1.5096    0.0000 O   0  0  0  0  0  0  0  0  0  0  0  0
  1  2  1  0  0  0  0
  2  3  1  0  0  0  0
  3  4  2  0  0  0  0
  4  5  1  0  0  0  0
  5  6  2  0  0  0  0
  6  7  1  0  0  0  0
  2  7  2  0  0  0  0
  6  8  1  0  0  0  0
  8  9  2  0  0  0  0
  9 10  1  0  0  0  0
  5 10  1  0  0  0  0
 10 11  1  0  0  0  0
 11 12  1  0  0  0  0
 12 13  2  0  0  0  0
 13 14  1  0  0  0  0
 14 15  1  0  0  0  0
 15 16  2  0  0  0  0
 16 17  1  0  0  0  0
 17 18  2  0  0  0  0
 18 19  1  0  0  0  0
 14 19  2  0  0  0  0
 19 20  1  0  0  0  0
 20 21  1  0  0  0  0
 21 22  1  0  0  0  0
 22 23  1  0  0  0  0
 23 24  2  0  0  0  0
 24 25  1  0  0  0  0
 25 26  2  0  0  0  0
 26 27  1  0  0  0  0
 13 27  1  0  0  0  0
 22 27  2  0  0  0  0
 25 28  1  0  0  0  0
 28 29  2  0  0  0  0
 28 30  1  0  0  0  0
M  END
>  <Name>
CHEMBL115536

>  <Target_Uniprot>
P21731

>  <CHEMBL Canonical SMILES>
Cc1ccc2c(c1)ncn2C\C=C\3/c4ccccc4COc5ccc(cc35)C(=O)O

>  <PubMed ID>
1388208

$$$$

  Marvin  08031817322D          

 26 29  0  0  0  0            999 V2000
   -2.2270   -0.7438    0.0000 O   0  0  0  0  0  0  0  0  0  0  0  0
   -1.5125   -1.1563    0.0000 C   0  0  0  0  0  0  0  0  0  0  0  0
   -1.5125   -1.9813    0.0000 O   0  0  0  0  0  0  0  0  0  0  0  0
   -0.7980   -0.7438    0.0000 C   0  0  0  0  0  0  0  0  0  0  0  0
   -0.7980    0.0812    0.0000 C   0  0  0  0  0  0  0  0  0  0  0  0
   -1.5125    0.4937    0.0000 C   0  0  0  0  0  0  0  0  0  0  0  0
   -1.5125    1.3187    0.0000 C   0  0  0  0  0  0  0  0  0  0  0  0
   -0.7980    1.7312    0.0000 C   0  0  0  0  0  0  0  0  0  0  0  0
   -0.0836    1.3187    0.0000 C   0  0  0  0  0  0  0  0  0  0  0  0
   -0.0836    0.4937    0.0000 C   0  0  0  0  0  0  0  0  0  0  0  0
    0.7011    0.2387    0.0000 N   0  0  0  0  0  0  0  0  0  0  0  0
    0.9560   -0.5459    0.0000 C   0  0  0  0  0  0  0  0  0  0  0  0
    0.4040   -1.1590    0.0000 C   0  0  0  0  0  0  0  0  0  0  0  0
   -0.4030   -0.9875    0.0000 C   0  0  0  0  0  0  0  0  0  0  0  0
   -0.9550   -1.6006    0.0000 C   0  0  0  0  0  0  0  0  0  0  0  0
   -0.7001   -2.3852    0.0000 C   0  0  0  0  0  0  0  0  0  0  0  0
   -1.2521   -2.9983    0.0000 Cl  0  0  0  0  0  0  0  0  0  0  0  0
    0.1069   -2.5567    0.0000 C   0  0  0  0  0  0  0  0  0  0  0  0
    0.6589   -1.9436    0.0000 C   0  0  0  0  0  0  0  0  0  0  0  0
    1.1860    0.9062    0.0000 C   0  0  0  0  0  0  0  0  0  0  0  0
    2.0065    0.9924    0.0000 C   0  0  0  0  0  0  0  0  0  0  0  0
    2.3420    1.7461    0.0000 C   0  0  0  0  0  0  0  0  0  0  0  0
    1.8571    2.4135    0.0000 C   0  0  0  0  0  0  0  0  0  0  0  0
    2.1926    3.1672    0.0000 F   0  0  0  0  0  0  0  0  0  0  0  0
    1.0366    2.3273    0.0000 C   0  0  0  0  0  0  0  0  0  0  0  0
    0.7011    1.5736    0.0000 C   0  0  0  0  0  0  0  0  0  0  0  0
  1  2  1  0  0  0  0
  2  3  2  0  0  0  0
  2  4  1  0  0  0  0
  4  5  1  0  0  0  0
  5  6  1  0  0  0  0
  6  7  1  0  0  0  0
  7  8  1  0  0  0  0
  8  9  1  0  0  0  0
  9 10  2  0  0  0  0
  5 10  1  0  0  0  0
 10 11  1  0  0  0  0
 11 12  1  0  0  0  0
 12 13  1  0  0  0  0
 13 14  1  0  0  0  0
 14 15  2  0  0  0  0
 15 16  1  0  0  0  0
 16 17  1  0  0  0  0
 16 18  2  0  0  0  0
 18 19  1  0  0  0  0
 13 19  2  0  0  0  0
 11 20  1  0  0  0  0
 20 21  1  0  0  0  0
 21 22  2  0  0  0  0
 22 23  1  0  0  0  0
 23 24  1  0  0  0  0
 23 25  2  0  0  0  0
 25 26  1  0  0  0  0
  9 26  1  0  0  0  0
 20 26  2  0  0  0  0
M  END
>  <Name>
CHEMBL280107

>  <Target_Uniprot>
P21731

>  <CHEMBL Canonical SMILES>
OC(=O)CC1CCCc2c1n(Cc3ccc(Cl)cc3)c4ccc(F)cc24

>  <PubMed ID>
8487256

$$$$

  Marvin  08031817322D          

 30 34  0  0  0  0            999 V2000
   -2.7516   -2.1222    0.0000 O   0  0  0  0  0  0  0  0  0  0  0  0
   -2.8256   -1.3005    0.0000 C   0  0  0  0  0  0  0  0  0  0  0  0
   -3.5742   -0.9537    0.0000 O   0  0  0  0  0  0  0  0  0  0  0  0
   -2.1510   -0.8257    0.0000 C   0  0  0  0  0  0  0  0  0  0  0  0
   -1.4024   -1.1724    0.0000 C   0  0  0  0  0  0  0  0  0  0  0  0
   -1.3285   -1.9941    0.0000 C   0  0  0  0  0  0  0  0  0  0  0  0
   -0.5799   -2.3409    0.0000 C   0  0  0  0  0  0  0  0  0  0  0  0
    0.0947   -1.8660    0.0000 C   0  0  0  0  0  0  0  0  0  0  0  0
    0.7833   -2.3205    0.0000 O   0  0  0  0  0  0  0  0  0  0  0  0
    1.5679   -2.0656    0.0000 C   0  0  0  0  0  0  0  0  0  0  0  0
    1.8578   -1.2932    0.0000 C   0  0  0  0  0  0  0  0  0  0  0  0
    2.6827   -1.2809    0.0000 C   0  0  0  0  0  0  0  0  0  0  0  0
    3.0844   -0.5603    0.0000 C   0  0  0  0  0  0  0  0  0  0  0  0
    2.6613    0.1479    0.0000 C   0  0  0  0  0  0  0  0  0  0  0  0
    1.8364    0.1356    0.0000 C   0  0  0  0  0  0  0  0  0  0  0  0
    1.4346   -0.5850    0.0000 C   0  0  0  0  0  0  0  0  0  0  0  0
    0.6171   -0.4742    0.0000 C   0  0  0  0  0  0  0  0  0  0  0  0
    0.3622    0.3104    0.0000 C   0  0  0  0  0  0  0  0  0  0  0  0
    0.9142    0.9235    0.0000 C   0  0  0  0  0  0  0  0  0  0  0  0
    0.6592    1.7081    0.0000 N   0  0  0  0  0  0  0  0  0  0  0  0
    1.1442    2.3755    0.0000 C   0  0  0  0  0  0  0  0  0  0  0  0
    0.6592    3.0430    0.0000 N   0  0  0  0  0  0  0  0  0  0  0  0
   -0.1254    2.7880    0.0000 C   0  0  0  0  0  0  0  0  0  0  0  0
   -0.8398    3.2005    0.0000 C   0  0  0  0  0  0  0  0  0  0  0  0
   -1.5543    2.7880    0.0000 C   0  0  0  0  0  0  0  0  0  0  0  0
   -1.5543    1.9630    0.0000 C   0  0  0  0  0  0  0  0  0  0  0  0
   -0.8398    1.5505    0.0000 C   0  0  0  0  0  0  0  0  0  0  0  0
   -0.1254    1.9630    0.0000 C   0  0  0  0  0  0  0  0  0  0  0  0
    0.0208   -1.0444    0.0000 C   0  0  0  0  0  0  0  0  0  0  0  0
   -0.7278   -0.6976    0.0000 C   0  0  0  0  0  0  0  0  0  0  0  0
  1  2  1  0  0  0  0
  2  3  2  0  0  0  0
  2  4  1  0  0  0  0
  4  5  1  0  0  0  0
  5  6  1  0  0  0  0
  6  7  2  0  0  0  0
  7  8  1  0  0  0  0
  8  9  1  0  0  0  0
  9 10  1  0  0  0  0
 10 11  1  0  0  0  0
 11 12  1  0  0  0  0
 12 13  2  0  0  0  0
 13 14  1  0  0  0  0
 14 15  2  0  0  0  0
 15 16  1  0  0  0  0
 11 16  2  0  0  0  0
 16 17  1  0  0  0  0
 17 18  2  0  0  0  0
 18 19  1  0  0  0  0
 19 20  1  0  0  0  0
 20 21  1  0  0  0  0
 21 22  2  0  0  0  0
 22 23  1  0  0  0  0
 23 24  1  0  0  0  0
 24 25  2  0  0  0  0
 25 26  1  0  0  0  0
 26 27  2  0  0  0  0
 27 28  1  0  0  0  0
 20 28  1  0  0  0  0
 23 28  2  0  0  0  0
 17 29  1  0  0  0  0
  8 29  2  0  0  0  0
 29 30  1  0  0  0  0
  5 30  2  0  0  0  0
M  END
>  <Name>
CHEMBL2178581

>  <Target_Uniprot>
P21731

>  <CHEMBL Canonical SMILES>
OC(=O)Cc1ccc2OCc3ccccc3\C(=C/Cn4cnc5ccccc45)\c2c1

>  <PubMed ID>
22931505

$$$$

  Marvin  08031817322D          

 34 37  0  0  0  0            999 V2000
    2.6418    0.7355    0.0000 O   0  0  0  0  0  0  0  0  0  0  0  0
    2.6418    1.5605    0.0000 C   0  0  0  0  0  0  0  0  0  0  0  0
    3.3563    1.9730    0.0000 O   0  0  0  0  0  0  0  0  0  0  0  0
    1.9273    1.9730    0.0000 C   0  0  0  0  0  0  0  0  0  0  0  0
    1.9273    2.7980    0.0000 C   0  0  0  0  0  0  0  0  0  0  0  0
    1.2129    3.2105    0.0000 C   0  0  0  0  0  0  0  0  0  0  0  0
    0.4984    2.7980    0.0000 C   0  0  0  0  0  0  0  0  0  0  0  0
   -0.1466    3.3124    0.0000 O   0  0  0  0  0  0  0  0  0  0  0  0
   -0.9509    3.1288    0.0000 C   0  0  0  0  0  0  0  0  0  0  0  0
   -1.3089    2.3855    0.0000 C   0  0  0  0  0  0  0  0  0  0  0  0
   -2.1316    2.4472    0.0000 C   0  0  0  0  0  0  0  0  0  0  0  0
   -2.5963    1.7655    0.0000 C   0  0  0  0  0  0  0  0  0  0  0  0
   -2.2384    1.0222    0.0000 C   0  0  0  0  0  0  0  0  0  0  0  0
   -1.4157    0.9606    0.0000 C   0  0  0  0  0  0  0  0  0  0  0  0
   -0.9509    1.6422    0.0000 C   0  0  0  0  0  0  0  0  0  0  0  0
   -0.1466    1.4586    0.0000 C   0  0  0  0  0  0  0  0  0  0  0  0
    0.0370    0.6543    0.0000 S   0  0  0  0  0  0  0  0  0  0  0  0
   -0.5678    0.0932    0.0000 C   0  0  0  0  0  0  0  0  0  0  0  0
   -0.3842   -0.7112    0.0000 C   0  0  0  0  0  0  0  0  0  0  0  0
   -0.9890   -1.2723    0.0000 N   0  0  0  0  0  0  0  0  0  0  0  0
   -0.8054   -2.0766    0.0000 S   0  0  0  0  0  0  0  0  0  0  0  0
   -0.0011   -1.8930    0.0000 O   0  0  0  0  0  0  0  0  0  0  0  0
   -1.6097   -2.2602    0.0000 O   0  0  0  0  0  0  0  0  0  0  0  0
   -0.6218   -2.8809    0.0000 C   0  0  0  0  0  0  0  0  0  0  0  0
   -1.2266   -3.4421    0.0000 C   0  0  0  0  0  0  0  0  0  0  0  0
   -1.0430   -4.2464    0.0000 C   0  0  0  0  0  0  0  0  0  0  0  0
   -0.2547   -4.4896    0.0000 C   0  0  0  0  0  0  0  0  0  0  0  0
    0.3501   -3.9284    0.0000 C   0  0  0  0  0  0  0  0  0  0  0  0
    0.1665   -3.1241    0.0000 C   0  0  0  0  0  0  0  0  0  0  0  0
    0.7713   -2.5630    0.0000 N   0  3  0  0  0  0  0  0  0  0  0  0
    0.5877   -1.7586    0.0000 O   0  0  0  0  0  0  0  0  0  0  0  0
    1.5596   -2.8061    0.0000 O   0  5  0  0  0  0  0  0  0  0  0  0
    0.4984    1.9730    0.0000 C   0  0  0  0  0  0  0  0  0  0  0  0
    1.2129    1.5605    0.0000 C   0  0  0  0  0  0  0  0  0  0  0  0
  1  2  1  0  0  0  0
  2  3  2  0  0  0  0
  2  4  1  0  0  0  0
  4  5  1  0  0  0  0
  5  6  2  0  0  0  0
  6  7  1  0  0  0  0
  7  8  1  0  0  0  0
  8  9  1  0  0  0  0
  9 10  1  0  0  0  0
 10 11  1  0  0  0  0
 11 12  2  0  0  0  0
 12 13  1  0  0  0  0
 13 14  2  0  0  0  0
 14 15  1  0  0  0  0
 10 15  2  0  0  0  0
 15 16  1  0  0  0  0
 16 17  1  0  0  0  0
 17 18  1  0  0  0  0
 18 19  1  0  0  0  0
 19 20  1  0  0  0  0
 20 21  1  0  0  0  0
 21 22  2  0  0  0  0
 21 23  2  0  0  0  0
 21 24  1  0  0  0  0
 24 25  1  0  0  0  0
 25 26  2  0  0  0  0
 26 27  1  0  0  0  0
 27 28  2  0  0  0  0
 28 29  1  0  0  0  0
 24 29  2  0  0  0  0
 29 30  1  0  0  0  0
 30 31  2  0  0  0  0
 30 32  1  0  0  0  0
 16 33  1  0  0  0  0
  7 33  2  0  0  0  0
 33 34  1  0  0  0  0
  4 34  2  0  0  0  0
M  CHG  2  30   1  32  -1
M  END
>  <Name>
CHEMBL444330

>  <Target_Uniprot>
P21731

>  <CHEMBL Canonical SMILES>
OC(=O)c1ccc2OCc3ccccc3C(SCCNS(=O)(=O)c4ccccc4[N+](=O)[O-])c2c1

>  <PubMed ID>
1388207

$$$$

  Marvin  08031817322D          

 30 34  0  0  0  0            999 V2000
   -2.2860   -0.1581    0.0000 O   0  0  0  0  0  0  0  0  0  0  0  0
   -2.2120   -0.9797    0.0000 C   0  0  0  0  0  0  0  0  0  0  0  0
   -2.8867   -1.4546    0.0000 O   0  0  0  0  0  0  0  0  0  0  0  0
   -1.4635   -1.3265    0.0000 C   0  0  0  0  0  0  0  0  0  0  0  0
   -1.3895   -2.1482    0.0000 C   0  0  0  0  0  0  0  0  0  0  0  0
   -0.6409   -2.4950    0.0000 C   0  0  0  0  0  0  0  0  0  0  0  0
    0.0337   -2.0201    0.0000 C   0  0  0  0  0  0  0  0  0  0  0  0
    0.7222   -2.4746    0.0000 O   0  0  0  0  0  0  0  0  0  0  0  0
    1.5068   -2.2197    0.0000 C   0  0  0  0  0  0  0  0  0  0  0  0
    1.7967   -1.4473    0.0000 C   0  0  0  0  0  0  0  0  0  0  0  0
    2.6216   -1.4349    0.0000 C   0  0  0  0  0  0  0  0  0  0  0  0
    3.0234   -0.7144    0.0000 C   0  0  0  0  0  0  0  0  0  0  0  0
    2.6002   -0.0062    0.0000 C   0  0  0  0  0  0  0  0  0  0  0  0
    1.7753   -0.0185    0.0000 C   0  0  0  0  0  0  0  0  0  0  0  0
    1.3736   -0.7391    0.0000 C   0  0  0  0  0  0  0  0  0  0  0  0
    0.5560   -0.6283    0.0000 C   0  0  0  0  0  0  0  0  0  0  0  0
    0.3011    0.1563    0.0000 C   0  0  0  0  0  0  0  0  0  0  0  0
    0.8531    0.7694    0.0000 C   0  0  0  0  0  0  0  0  0  0  0  0
    0.5982    1.5540    0.0000 N   0  0  0  0  0  0  0  0  0  0  0  0
    1.0831    2.2215    0.0000 C   0  0  0  0  0  0  0  0  0  0  0  0
    0.5982    2.8889    0.0000 N   0  0  0  0  0  0  0  0  0  0  0  0
   -0.1864    2.6340    0.0000 C   0  0  0  0  0  0  0  0  0  0  0  0
   -0.9009    3.0465    0.0000 C   0  0  0  0  0  0  0  0  0  0  0  0
   -1.6154    2.6340    0.0000 C   0  0  0  0  0  0  0  0  0  0  0  0
   -1.6154    1.8090    0.0000 C   0  0  0  0  0  0  0  0  0  0  0  0
   -2.3299    1.3965    0.0000 Cl  0  0  0  0  0  0  0  0  0  0  0  0
   -0.9009    1.3965    0.0000 C   0  0  0  0  0  0  0  0  0  0  0  0
   -0.1864    1.8090    0.0000 C   0  0  0  0  0  0  0  0  0  0  0  0
   -0.0403   -1.1984    0.0000 C   0  0  0  0  0  0  0  0  0  0  0  0
   -0.7889   -0.8516    0.0000 C   0  0  0  0  0  0  0  0  0  0  0  0
  1  2  1  0  0  0  0
  2  3  2  0  0  0  0
  2  4  1  0  0  0  0
  4  5  1  0  0  0  0
  5  6  2  0  0  0  0
  6  7  1  0  0  0  0
  7  8  1  0  0  0  0
  8  9  1  0  0  0  0
  9 10  1  0  0  0  0
 10 11  1  0  0  0  0
 11 12  2  0  0  0  0
 12 13  1  0  0  0  0
 13 14  2  0  0  0  0
 14 15  1  0  0  0  0
 10 15  2  0  0  0  0
 15 16  1  0  0  0  0
 16 17  2  0  0  0  0
 17 18  1  0  0  0  0
 18 19  1  0  0  0  0
 19 20  1  0  0  0  0
 20 21  2  0  0  0  0
 21 22  1  0  0  0  0
 22 23  1  0  0  0  0
 23 24  2  0  0  0  0
 24 25  1  0  0  0  0
 25 26  1  0  0  0  0
 25 27  2  0  0  0  0
 27 28  1  0  0  0  0
 19 28  1  0  0  0  0
 22 28  2  0  0  0  0
 16 29  1  0  0  0  0
  7 29  2  0  0  0  0
 29 30  1  0  0  0  0
  4 30  2  0  0  0  0
M  END
>  <Name>
CHEMBL331833

>  <Target_Uniprot>
P21731

>  <CHEMBL Canonical SMILES>
OC(=O)c1ccc2OCc3ccccc3\C(=C/Cn4cnc5ccc(Cl)cc45)\c2c1

>  <PubMed ID>
1388208

$$$$

  Marvin  08031817322D          

 29 33  0  0  0  0            999 V2000
   -2.3663   -0.1099    0.0000 O   0  0  0  0  0  0  0  0  0  0  0  0
   -2.2924   -0.9316    0.0000 C   0  0  0  0  0  0  0  0  0  0  0  0
   -2.9670   -1.4065    0.0000 O   0  0  0  0  0  0  0  0  0  0  0  0
   -1.5438   -1.2784    0.0000 C   0  0  0  0  0  0  0  0  0  0  0  0
   -1.4699   -2.1001    0.0000 C   0  0  0  0  0  0  0  0  0  0  0  0
   -0.7213   -2.4469    0.0000 C   0  0  0  0  0  0  0  0  0  0  0  0
   -0.0467   -1.9720    0.0000 C   0  0  0  0  0  0  0  0  0  0  0  0
    0.6419   -2.4265    0.0000 O   0  0  0  0  0  0  0  0  0  0  0  0
    1.4265   -2.1715    0.0000 C   0  0  0  0  0  0  0  0  0  0  0  0
    1.7164   -1.3991    0.0000 C   0  0  0  0  0  0  0  0  0  0  0  0
    2.5413   -1.3868    0.0000 C   0  0  0  0  0  0  0  0  0  0  0  0
    2.9430   -0.6662    0.0000 C   0  0  0  0  0  0  0  0  0  0  0  0
    2.5199    0.0420    0.0000 C   0  0  0  0  0  0  0  0  0  0  0  0
    1.6950    0.0297    0.0000 C   0  0  0  0  0  0  0  0  0  0  0  0
    1.2932   -0.6909    0.0000 C   0  0  0  0  0  0  0  0  0  0  0  0
    0.4757   -0.5802    0.0000 C   0  0  0  0  0  0  0  0  0  0  0  0
    0.2207    0.2045    0.0000 C   0  0  0  0  0  0  0  0  0  0  0  0
    0.7728    0.8176    0.0000 C   0  0  0  0  0  0  0  0  0  0  0  0
    0.5178    1.6022    0.0000 N   0  0  0  0  0  0  0  0  0  0  0  0
    1.0028    2.2696    0.0000 C   0  0  0  0  0  0  0  0  0  0  0  0
    0.5178    2.9371    0.0000 N   0  0  0  0  0  0  0  0  0  0  0  0
   -0.2668    2.6821    0.0000 C   0  0  0  0  0  0  0  0  0  0  0  0
   -0.9813    3.0946    0.0000 C   0  0  0  0  0  0  0  0  0  0  0  0
   -1.6957    2.6821    0.0000 C   0  0  0  0  0  0  0  0  0  0  0  0
   -1.6957    1.8571    0.0000 C   0  0  0  0  0  0  0  0  0  0  0  0
   -0.9813    1.4446    0.0000 C   0  0  0  0  0  0  0  0  0  0  0  0
   -0.2668    1.8571    0.0000 C   0  0  0  0  0  0  0  0  0  0  0  0
   -0.1206   -1.1503    0.0000 C   0  0  0  0  0  0  0  0  0  0  0  0
   -0.8692   -0.8035    0.0000 C   0  0  0  0  0  0  0  0  0  0  0  0
  1  2  1  0  0  0  0
  2  3  2  0  0  0  0
  2  4  1  0  0  0  0
  4  5  1  0  0  0  0
  5  6  2  0  0  0  0
  6  7  1  0  0  0  0
  7  8  1  0  0  0  0
  8  9  1  0  0  0  0
  9 10  1  0  0  0  0
 10 11  1  0  0  0  0
 11 12  2  0  0  0  0
 12 13  1  0  0  0  0
 13 14  2  0  0  0  0
 14 15  1  0  0  0  0
 10 15  2  0  0  0  0
 15 16  1  0  0  0  0
 16 17  2  0  0  0  0
 17 18  1  0  0  0  0
 18 19  1  0  0  0  0
 19 20  1  0  0  0  0
 20 21  2  0  0  0  0
 21 22  1  0  0  0  0
 22 23  1  0  0  0  0
 23 24  2  0  0  0  0
 24 25  1  0  0  0  0
 25 26  2  0  0  0  0
 26 27  1  0  0  0  0
 19 27  1  0  0  0  0
 22 27  2  0  0  0  0
 16 28  1  0  0  0  0
  7 28  2  0  0  0  0
 28 29  1  0  0  0  0
  4 29  2  0  0  0  0
M  END
>  <Name>
CHEMBL198104

>  <Target_Uniprot>
P21731

>  <CHEMBL Canonical SMILES>
OC(=O)c1ccc2OCc3ccccc3\C(=C/Cn4cnc5ccccc45)\c2c1

>  <PubMed ID>
16220969

$$$$

  Marvin  08031817322D          

 30 33  0  0  0  0            999 V2000
    0.0000    0.0000    0.0000 Na  0  3  0  0  0  0  0  0  0  0  0  0
    2.3384    0.0424    0.0000 O   0  5  0  0  0  0  0  0  0  0  0  0
    2.4123   -0.7793    0.0000 C   0  0  0  0  0  0  0  0  0  0  0  0
    1.7377   -1.2542    0.0000 O   0  0  0  0  0  0  0  0  0  0  0  0
    3.1609   -1.1261    0.0000 C   0  0  0  0  0  0  0  0  0  0  0  0
    3.2349   -1.9478    0.0000 C   0  0  0  0  0  0  0  0  0  0  0  0
    3.9834   -2.2946    0.0000 C   0  0  0  0  0  0  0  0  0  0  0  0
    4.6581   -1.8197    0.0000 C   0  0  0  0  0  0  0  0  0  0  0  0
    5.3466   -2.2742    0.0000 O   0  0  0  0  0  0  0  0  0  0  0  0
    6.1312   -2.0193    0.0000 C   0  0  0  0  0  0  0  0  0  0  0  0
    6.4211   -1.2469    0.0000 C   0  0  0  0  0  0  0  0  0  0  0  0
    7.2460   -1.2345    0.0000 C   0  0  0  0  0  0  0  0  0  0  0  0
    7.6478   -0.5140    0.0000 C   0  0  0  0  0  0  0  0  0  0  0  0
    7.2246    0.1943    0.0000 C   0  0  0  0  0  0  0  0  0  0  0  0
    6.3997    0.1819    0.0000 C   0  0  0  0  0  0  0  0  0  0  0  0
    5.9979   -0.5386    0.0000 C   0  0  0  0  0  0  0  0  0  0  0  0
    5.1804   -0.4279    0.0000 C   0  0  0  0  0  0  0  0  0  0  0  0
    4.9255    0.3567    0.0000 C   0  0  0  0  0  0  0  0  0  0  0  0
    4.1185    0.5283    0.0000 C   0  0  0  0  0  0  0  0  0  0  0  0
    3.8636    1.3129    0.0000 N   0  0  0  0  0  0  0  0  0  0  0  0
    4.3485    1.9803    0.0000 C   0  0  0  0  0  0  0  0  0  0  0  0
    3.8636    2.6477    0.0000 N   0  0  0  0  0  0  0  0  0  0  0  0
    3.0789    2.3928    0.0000 C   0  0  0  0  0  0  0  0  0  0  0  0
    2.3645    2.8053    0.0000 C   0  0  0  0  0  0  0  0  0  0  0  0
    1.6500    2.3928    0.0000 C   0  0  0  0  0  0  0  0  0  0  0  0
    1.6500    1.5678    0.0000 C   0  0  0  0  0  0  0  0  0  0  0  0
    2.3645    1.1553    0.0000 C   0  0  0  0  0  0  0  0  0  0  0  0
    3.0789    1.5678    0.0000 C   0  0  0  0  0  0  0  0  0  0  0  0
    4.5841   -0.9980    0.0000 C   0  0  0  0  0  0  0  0  0  0  0  0
    3.8355   -0.6512    0.0000 C   0  0  0  0  0  0  0  0  0  0  0  0
  2  3  1  0  0  0  0
  3  4  2  0  0  0  0
  3  5  1  0  0  0  0
  5  6  1  0  0  0  0
  6  7  2  0  0  0  0
  7  8  1  0  0  0  0
  8  9  1  0  0  0  0
  9 10  1  0  0  0  0
 10 11  1  0  0  0  0
 11 12  1  0  0  0  0
 12 13  2  0  0  0  0
 13 14  1  0  0  0  0
 14 15  2  0  0  0  0
 15 16  1  0  0  0  0
 11 16  2  0  0  0  0
 16 17  1  0  0  0  0
 17 18  2  0  0  0  0
 18 19  1  0  0  0  0
 19 20  1  0  0  0  0
 20 21  1  0  0  0  0
 21 22  2  0  0  0  0
 22 23  1  0  0  0  0
 23 24  1  0  0  0  0
 24 25  2  0  0  0  0
 25 26  1  0  0  0  0
 26 27  2  0  0  0  0
 27 28  1  0  0  0  0
 20 28  1  0  0  0  0
 23 28  2  0  0  0  0
 17 29  1  0  0  0  0
  8 29  2  0  0  0  0
 29 30  1  0  0  0  0
  5 30  2  0  0  0  0
M  CHG  2   1   1   2  -1
M  END
>  <Name>
CHEMBL324972

>  <Target_Uniprot>
P21731

>  <CHEMBL Canonical SMILES>
[Na+].[O-]C(=O)c1ccc2OCc3ccccc3\C(=C\Cn4cnc5ccccc45)\c2c1

>  <PubMed ID>
1388208

$$$$

  Marvin  08031817322D          

 28 31  0  0  1  0            999 V2000
    1.8765   -0.4700    0.0000 C   0  0  0  0  0  0  0  0  0  0  0  0
    2.2121    0.2836    0.0000 C   0  0  0  0  0  0  0  0  0  0  0  0
    3.0326    0.3699    0.0000 O   0  0  0  0  0  0  0  0  0  0  0  0
    1.7272    0.9511    0.0000 C   0  0  0  0  0  0  0  0  0  0  0  0
    2.0627    1.7048    0.0000 C   0  0  0  0  0  0  0  0  0  0  0  0
    1.5778    2.3722    0.0000 C   0  0  0  0  0  0  0  0  0  0  0  0
    1.9134    3.1259    0.0000 F   0  0  0  0  0  0  0  0  0  0  0  0
    0.7573    2.2860    0.0000 C   0  0  0  0  0  0  0  0  0  0  0  0
    0.4218    1.5323    0.0000 C   0  0  0  0  0  0  0  0  0  0  0  0
   -0.3629    1.2773    0.0000 C   0  0  0  0  0  0  0  0  0  0  0  0
   -1.1475    1.5323    0.0000 C   0  0  0  0  0  0  0  0  0  0  0  0
   -1.6324    0.8648    0.0000 C   0  0  0  0  0  0  0  0  0  0  0  0
   -1.1475    0.1974    0.0000 C   0  0  2  0  0  0  0  0  0  0  0  0
   -1.4024   -0.5872    0.0000 C   0  0  0  0  0  0  0  0  0  0  0  0
   -2.2094   -0.7587    0.0000 C   0  0  0  0  0  0  0  0  0  0  0  0
   -2.7614   -0.1456    0.0000 O   0  0  0  0  0  0  0  0  0  0  0  0
   -2.4643   -1.5434    0.0000 O   0  0  0  0  0  0  0  0  0  0  0  0
   -0.3629    0.4523    0.0000 C   0  0  0  0  0  0  0  0  0  0  0  0
    0.4218    0.1974    0.0000 N   0  0  0  0  0  0  0  0  0  0  0  0
    0.6767   -0.5872    0.0000 C   0  0  0  0  0  0  0  0  0  0  0  0
    0.1247   -1.2003    0.0000 C   0  0  0  0  0  0  0  0  0  0  0  0
   -0.6823   -1.0288    0.0000 C   0  0  0  0  0  0  0  0  0  0  0  0
   -1.2343   -1.6419    0.0000 C   0  0  0  0  0  0  0  0  0  0  0  0
   -0.9794   -2.4265    0.0000 C   0  0  0  0  0  0  0  0  0  0  0  0
   -1.5314   -3.0396    0.0000 Cl  0  0  0  0  0  0  0  0  0  0  0  0
   -0.1724   -2.5980    0.0000 C   0  0  0  0  0  0  0  0  0  0  0  0
    0.3796   -1.9849    0.0000 C   0  0  0  0  0  0  0  0  0  0  0  0
    0.9067    0.8648    0.0000 C   0  0  0  0  0  0  0  0  0  0  0  0
  1  2  1  0  0  0  0
  2  3  2  0  0  0  0
  2  4  1  0  0  0  0
  4  5  2  0  0  0  0
  5  6  1  0  0  0  0
  6  7  1  0  0  0  0
  6  8  2  0  0  0  0
  8  9  1  0  0  0  0
  9 10  1  0  0  0  0
 10 11  1  0  0  0  0
 11 12  1  0  0  0  0
 12 13  1  0  0  0  0
 13 14  1  1  0  0  0
 14 15  1  0  0  0  0
 15 16  2  0  0  0  0
 15 17  1  0  0  0  0
 13 18  1  0  0  0  0
 10 18  2  0  0  0  0
 18 19  1  0  0  0  0
 19 20  1  0  0  0  0
 20 21  1  0  0  0  0
 21 22  1  0  0  0  0
 22 23  2  0  0  0  0
 23 24  1  0  0  0  0
 24 25  1  0  0  0  0
 24 26  2  0  0  0  0
 26 27  1  0  0  0  0
 21 27  2  0  0  0  0
 19 28  1  0  0  0  0
  4 28  1  0  0  0  0
  9 28  2  0  0  0  0
M  END
>  <Name>
CHEMBL385126

>  <Target_Uniprot>
P21731

>  <CHEMBL Canonical SMILES>
CC(=O)c1cc(F)cc2c3CC[C@H](CC(=O)O)c3n(Cc4ccc(Cl)cc4)c12

>  <PubMed ID>
17300164

$$$$

  Marvin  08031817322D          

 35 39  0  0  0  0            999 V2000
    2.6364    1.1027    0.0000 O   0  0  0  0  0  0  0  0  0  0  0  0
    2.6364    1.9277    0.0000 C   0  0  0  0  0  0  0  0  0  0  0  0
    3.3509    2.3402    0.0000 O   0  0  0  0  0  0  0  0  0  0  0  0
    1.9220    2.3402    0.0000 C   0  0  0  0  0  0  0  0  0  0  0  0
    1.9220    3.1652    0.0000 C   0  0  0  0  0  0  0  0  0  0  0  0
    1.2075    3.5777    0.0000 C   0  0  0  0  0  0  0  0  0  0  0  0
    0.4930    3.1652    0.0000 C   0  0  0  0  0  0  0  0  0  0  0  0
   -0.1520    3.6795    0.0000 O   0  0  0  0  0  0  0  0  0  0  0  0
   -0.9563    3.4960    0.0000 C   0  0  0  0  0  0  0  0  0  0  0  0
   -1.3143    2.7527    0.0000 C   0  0  0  0  0  0  0  0  0  0  0  0
   -2.1370    2.8143    0.0000 C   0  0  0  0  0  0  0  0  0  0  0  0
   -2.6017    2.1327    0.0000 C   0  0  0  0  0  0  0  0  0  0  0  0
   -2.2437    1.3894    0.0000 C   0  0  0  0  0  0  0  0  0  0  0  0
   -1.4210    1.3277    0.0000 C   0  0  0  0  0  0  0  0  0  0  0  0
   -0.9563    2.0094    0.0000 C   0  0  0  0  0  0  0  0  0  0  0  0
   -0.1520    1.8258    0.0000 C   0  0  0  0  0  0  0  0  0  0  0  0
    0.0316    1.0215    0.0000 S   0  0  0  0  0  0  0  0  0  0  0  0
   -0.5732    0.4603    0.0000 C   0  0  0  0  0  0  0  0  0  0  0  0
   -0.3896   -0.3440    0.0000 C   0  0  0  0  0  0  0  0  0  0  0  0
   -0.9944   -0.9051    0.0000 N   0  0  0  0  0  0  0  0  0  0  0  0
   -0.8108   -1.7094    0.0000 S   0  0  0  0  0  0  0  0  0  0  0  0
   -0.0065   -1.5259    0.0000 O   0  0  0  0  0  0  0  0  0  0  0  0
   -1.6151   -1.8930    0.0000 O   0  0  0  0  0  0  0  0  0  0  0  0
   -0.6272   -2.5138    0.0000 C   0  0  0  0  0  0  0  0  0  0  0  0
   -1.2320   -3.0749    0.0000 C   0  0  0  0  0  0  0  0  0  0  0  0
   -1.0484   -3.8792    0.0000 C   0  0  0  0  0  0  0  0  0  0  0  0
   -0.2600   -4.1224    0.0000 C   0  0  0  0  0  0  0  0  0  0  0  0
   -0.0765   -4.9267    0.0000 C   0  0  0  0  0  0  0  0  0  0  0  0
    0.7119   -5.1699    0.0000 C   0  0  0  0  0  0  0  0  0  0  0  0
    1.3167   -4.6087    0.0000 C   0  0  0  0  0  0  0  0  0  0  0  0
    1.1331   -3.8044    0.0000 C   0  0  0  0  0  0  0  0  0  0  0  0
    0.3447   -3.5613    0.0000 C   0  0  0  0  0  0  0  0  0  0  0  0
    0.1611   -2.7569    0.0000 C   0  0  0  0  0  0  0  0  0  0  0  0
    0.4930    2.3402    0.0000 C   0  0  0  0  0  0  0  0  0  0  0  0
    1.2075    1.9277    0.0000 C   0  0  0  0  0  0  0  0  0  0  0  0
  1  2  1  0  0  0  0
  2  3  2  0  0  0  0
  2  4  1  0  0  0  0
  4  5  1  0  0  0  0
  5  6  2  0  0  0  0
  6  7  1  0  0  0  0
  7  8  1  0  0  0  0
  8  9  1  0  0  0  0
  9 10  1  0  0  0  0
 10 11  1  0  0  0  0
 11 12  2  0  0  0  0
 12 13  1  0  0  0  0
 13 14  2  0  0  0  0
 14 15  1  0  0  0  0
 10 15  2  0  0  0  0
 15 16  1  0  0  0  0
 16 17  1  0  0  0  0
 17 18  1  0  0  0  0
 18 19  1  0  0  0  0
 19 20  1  0  0  0  0
 20 21  1  0  0  0  0
 21 22  2  0  0  0  0
 21 23  2  0  0  0  0
 21 24  1  0  0  0  0
 24 25  1  0  0  0  0
 25 26  2  0  0  0  0
 26 27  1  0  0  0  0
 27 28  1  0  0  0  0
 28 29  2  0  0  0  0
 29 30  1  0  0  0  0
 30 31  2  0  0  0  0
 31 32  1  0  0  0  0
 27 32  2  0  0  0  0
 32 33  1  0  0  0  0
 24 33  2  0  0  0  0
 16 34  1  0  0  0  0
  7 34  2  0  0  0  0
 34 35  1  0  0  0  0
  4 35  2  0  0  0  0
M  END
>  <Name>
CHEMBL114838

>  <Target_Uniprot>
P21731

>  <CHEMBL Canonical SMILES>
OC(=O)c1ccc2OCc3ccccc3C(SCCNS(=O)(=O)c4ccc5ccccc5c4)c2c1

>  <PubMed ID>
1388207

$$$$

  Marvin  08031817322D          

 34 37  0  0  0  0            999 V2000
    2.6040    0.9011    0.0000 O   0  0  0  0  0  0  0  0  0  0  0  0
    2.6040    1.7261    0.0000 C   0  0  0  0  0  0  0  0  0  0  0  0
    3.3185    2.1386    0.0000 O   0  0  0  0  0  0  0  0  0  0  0  0
    1.8895    2.1386    0.0000 C   0  0  0  0  0  0  0  0  0  0  0  0
    1.8895    2.9636    0.0000 C   0  0  0  0  0  0  0  0  0  0  0  0
    1.1751    3.3761    0.0000 C   0  0  0  0  0  0  0  0  0  0  0  0
    0.4606    2.9636    0.0000 C   0  0  0  0  0  0  0  0  0  0  0  0
   -0.1844    3.4780    0.0000 O   0  0  0  0  0  0  0  0  0  0  0  0
   -0.9887    3.2944    0.0000 C   0  0  0  0  0  0  0  0  0  0  0  0
   -1.3467    2.5511    0.0000 C   0  0  0  0  0  0  0  0  0  0  0  0
   -2.1694    2.6127    0.0000 C   0  0  0  0  0  0  0  0  0  0  0  0
   -2.6341    1.9311    0.0000 C   0  0  0  0  0  0  0  0  0  0  0  0
   -2.2762    1.1878    0.0000 C   0  0  0  0  0  0  0  0  0  0  0  0
   -1.4535    1.1262    0.0000 C   0  0  0  0  0  0  0  0  0  0  0  0
   -0.9887    1.8078    0.0000 C   0  0  0  0  0  0  0  0  0  0  0  0
   -0.1844    1.6242    0.0000 C   0  0  0  0  0  0  0  0  0  0  0  0
   -0.0008    0.8199    0.0000 S   0  0  0  0  0  0  0  0  0  0  0  0
   -0.6056    0.2588    0.0000 C   0  0  0  0  0  0  0  0  0  0  0  0
   -0.4220   -0.5456    0.0000 C   0  0  0  0  0  0  0  0  0  0  0  0
   -1.0268   -1.1067    0.0000 N   0  0  0  0  0  0  0  0  0  0  0  0
   -0.8432   -1.9110    0.0000 S   0  0  0  0  0  0  0  0  0  0  0  0
   -0.0389   -1.7274    0.0000 O   0  0  0  0  0  0  0  0  0  0  0  0
   -1.6475   -2.0946    0.0000 O   0  0  0  0  0  0  0  0  0  0  0  0
   -0.6596   -2.7153    0.0000 C   0  0  0  0  0  0  0  0  0  0  0  0
   -1.2644   -3.2765    0.0000 C   0  0  0  0  0  0  0  0  0  0  0  0
   -1.0808   -4.0808    0.0000 C   0  0  0  0  0  0  0  0  0  0  0  0
   -0.2925   -4.3240    0.0000 C   0  0  0  0  0  0  0  0  0  0  0  0
    0.3123   -3.7628    0.0000 C   0  0  0  0  0  0  0  0  0  0  0  0
    0.1287   -2.9585    0.0000 C   0  0  0  0  0  0  0  0  0  0  0  0
    1.1006   -4.0060    0.0000 N   0  3  0  0  0  0  0  0  0  0  0  0
    1.7054   -3.4448    0.0000 O   0  0  0  0  0  0  0  0  0  0  0  0
    1.2842   -4.8103    0.0000 O   0  5  0  0  0  0  0  0  0  0  0  0
    0.4606    2.1386    0.0000 C   0  0  0  0  0  0  0  0  0  0  0  0
    1.1751    1.7261    0.0000 C   0  0  0  0  0  0  0  0  0  0  0  0
  1  2  1  0  0  0  0
  2  3  2  0  0  0  0
  2  4  1  0  0  0  0
  4  5  1  0  0  0  0
  5  6  2  0  0  0  0
  6  7  1  0  0  0  0
  7  8  1  0  0  0  0
  8  9  1  0  0  0  0
  9 10  1  0  0  0  0
 10 11  1  0  0  0  0
 11 12  2  0  0  0  0
 12 13  1  0  0  0  0
 13 14  2  0  0  0  0
 14 15  1  0  0  0  0
 10 15  2  0  0  0  0
 15 16  1  0  0  0  0
 16 17  1  0  0  0  0
 17 18  1  0  0  0  0
 18 19  1  0  0  0  0
 19 20  1  0  0  0  0
 20 21  1  0  0  0  0
 21 22  2  0  0  0  0
 21 23  2  0  0  0  0
 21 24  1  0  0  0  0
 24 25  1  0  0  0  0
 25 26  2  0  0  0  0
 26 27  1  0  0  0  0
 27 28  2  0  0  0  0
 28 29  1  0  0  0  0
 24 29  2  0  0  0  0
 28 30  1  0  0  0  0
 30 31  2  0  0  0  0
 30 32  1  0  0  0  0
 16 33  1  0  0  0  0
  7 33  2  0  0  0  0
 33 34  1  0  0  0  0
  4 34  2  0  0  0  0
M  CHG  2  30   1  32  -1
M  END
>  <Name>
CHEMBL326808

>  <Target_Uniprot>
P21731

>  <CHEMBL Canonical SMILES>
OC(=O)c1ccc2OCc3ccccc3C(SCCNS(=O)(=O)c4cccc(c4)[N+](=O)[O-])c2c1

>  <PubMed ID>
1388207

$$$$

  Marvin  08031817322D          

 29 32  0  0  0  0            999 V2000
   -1.5320   -1.2184    0.0000 C   0  0  0  0  0  0  0  0  0  0  0  0
   -1.1195   -0.5040    0.0000 C   0  0  0  0  0  0  0  0  0  0  0  0
   -1.8339   -0.9165    0.0000 C   0  0  0  0  0  0  0  0  0  0  0  0
   -1.1195    0.3210    0.0000 C   0  0  0  0  0  0  0  0  0  0  0  0
   -1.8339    0.7335    0.0000 C   0  0  0  0  0  0  0  0  0  0  0  0
   -1.8339    1.5585    0.0000 C   0  0  0  0  0  0  0  0  0  0  0  0
   -1.1195    1.9710    0.0000 N   0  0  0  0  0  0  0  0  0  0  0  0
   -0.4050    1.5585    0.0000 C   0  0  0  0  0  0  0  0  0  0  0  0
   -0.4050    0.7335    0.0000 C   0  0  0  0  0  0  0  0  0  0  0  0
    0.3796    0.4786    0.0000 C   0  0  0  0  0  0  0  0  0  0  0  0
    0.6346   -0.3060    0.0000 S   0  0  0  0  0  0  0  0  0  0  0  0
    0.0825   -0.9191    0.0000 C   0  0  0  0  0  0  0  0  0  0  0  0
   -0.7244   -0.7476    0.0000 C   0  0  0  0  0  0  0  0  0  0  0  0
   -1.2765   -1.3607    0.0000 C   0  0  0  0  0  0  0  0  0  0  0  0
   -1.0215   -2.1453    0.0000 C   0  0  0  0  0  0  0  0  0  0  0  0
   -1.5736   -2.7584    0.0000 Cl  0  0  0  0  0  0  0  0  0  0  0  0
   -0.2146   -2.3168    0.0000 C   0  0  0  0  0  0  0  0  0  0  0  0
    0.0404   -3.1014    0.0000 Cl  0  0  0  0  0  0  0  0  0  0  0  0
    0.3375   -1.7037    0.0000 C   0  0  0  0  0  0  0  0  0  0  0  0
    0.8645    1.1460    0.0000 C   0  0  0  0  0  0  0  0  0  0  0  0
    1.6850    1.2323    0.0000 C   0  0  0  0  0  0  0  0  0  0  0  0
    2.1700    0.5648    0.0000 C   0  0  0  0  0  0  0  0  0  0  0  0
    1.8344   -0.1888    0.0000 C   0  0  0  0  0  0  0  0  0  0  0  0
    1.0139   -0.2751    0.0000 O   0  0  0  0  0  0  0  0  0  0  0  0
    2.3193   -0.8563    0.0000 O   0  0  0  0  0  0  0  0  0  0  0  0
    2.0206    1.9860    0.0000 C   0  0  0  0  0  0  0  0  0  0  0  0
    1.5357    2.6534    0.0000 C   0  0  0  0  0  0  0  0  0  0  0  0
    0.7152    2.5672    0.0000 C   0  0  0  0  0  0  0  0  0  0  0  0
    0.3796    1.8135    0.0000 N   0  0  0  0  0  0  0  0  0  0  0  0
  1  2  1  0  0  0  0
  2  3  1  0  0  0  0
  2  4  1  0  0  0  0
  4  5  1  0  0  0  0
  5  6  2  0  0  0  0
  6  7  1  0  0  0  0
  7  8  2  0  0  0  0
  8  9  1  0  0  0  0
  4  9  2  0  0  0  0
  9 10  1  0  0  0  0
 10 11  1  0  0  0  0
 11 12  1  0  0  0  0
 12 13  1  0  0  0  0
 13 14  2  0  0  0  0
 14 15  1  0  0  0  0
 15 16  1  0  0  0  0
 15 17  2  0  0  0  0
 17 18  1  0  0  0  0
 17 19  1  0  0  0  0
 12 19  2  0  0  0  0
 10 20  2  0  0  0  0
 20 21  1  0  0  0  0
 21 22  1  0  0  0  0
 22 23  1  0  0  0  0
 23 24  2  0  0  0  0
 23 25  1  0  0  0  0
 21 26  1  0  0  0  0
 26 27  1  0  0  0  0
 27 28  1  0  0  0  0
 28 29  1  0  0  0  0
  8 29  1  0  0  0  0
 20 29  1  0  0  0  0
M  END
>  <Name>
CHEMBL521290

>  <Target_Uniprot>
P21731

>  <CHEMBL Canonical SMILES>
CC(C)c1ccnc2c1c(Sc3ccc(Cl)c(Cl)c3)c4C(CC(=O)O)CCCn24

>  <PubMed ID>
19307115

$$$$

  Marvin  08031817322D          

 26 28  0  0  0  0            999 V2000
    1.0046    1.6170    0.0000 C   0  0  0  0  0  0  0  0  0  0  0  0
    1.7191    1.2045    0.0000 C   0  0  0  0  0  0  0  0  0  0  0  0
    2.4336    0.7920    0.0000 C   0  0  0  0  0  0  0  0  0  0  0  0
    2.1316    1.9190    0.0000 C   0  0  0  0  0  0  0  0  0  0  0  0
    2.9566    1.9190    0.0000 C   0  0  0  0  0  0  0  0  0  0  0  0
    3.3691    1.2045    0.0000 O   0  0  0  0  0  0  0  0  0  0  0  0
    3.3691    2.6335    0.0000 O   0  0  0  0  0  0  0  0  0  0  0  0
    1.3066    0.4901    0.0000 C   0  0  0  0  0  0  0  0  0  0  0  0
    0.4816    0.4901    0.0000 C   0  0  0  0  0  0  0  0  0  0  0  0
   -0.0033    1.1575    0.0000 N   0  0  0  0  0  0  0  0  0  0  0  0
   -0.7879    0.9026    0.0000 C   0  0  0  0  0  0  0  0  0  0  0  0
   -1.5024    1.3151    0.0000 C   0  0  0  0  0  0  0  0  0  0  0  0
   -2.2169    0.9026    0.0000 C   0  0  0  0  0  0  0  0  0  0  0  0
   -2.9314    1.3151    0.0000 Cl  0  0  0  0  0  0  0  0  0  0  0  0
   -2.2169    0.0776    0.0000 C   0  0  0  0  0  0  0  0  0  0  0  0
   -1.5024   -0.3349    0.0000 C   0  0  0  0  0  0  0  0  0  0  0  0
   -0.7879    0.0776    0.0000 C   0  0  0  0  0  0  0  0  0  0  0  0
   -0.0033   -0.1774    0.0000 N   0  0  0  0  0  0  0  0  0  0  0  0
    0.2516   -0.9620    0.0000 C   0  0  0  0  0  0  0  0  0  0  0  0
   -0.3004   -1.5751    0.0000 C   0  0  0  0  0  0  0  0  0  0  0  0
   -1.1074   -1.4036    0.0000 C   0  0  0  0  0  0  0  0  0  0  0  0
   -1.6594   -2.0167    0.0000 C   0  0  0  0  0  0  0  0  0  0  0  0
   -1.4045   -2.8013    0.0000 C   0  0  0  0  0  0  0  0  0  0  0  0
   -1.9565   -3.4144    0.0000 Br  0  0  0  0  0  0  0  0  0  0  0  0
   -0.5975   -2.9728    0.0000 C   0  0  0  0  0  0  0  0  0  0  0  0
   -0.0455   -2.3597    0.0000 C   0  0  0  0  0  0  0  0  0  0  0  0
  1  2  1  0  0  0  0
  2  3  1  0  0  0  0
  2  4  1  0  0  0  0
  4  5  1  0  0  0  0
  5  6  2  0  0  0  0
  5  7  1  0  0  0  0
  2  8  1  0  0  0  0
  8  9  1  0  0  0  0
  9 10  2  0  0  0  0
 10 11  1  0  0  0  0
 11 12  1  0  0  0  0
 12 13  2  0  0  0  0
 13 14  1  0  0  0  0
 13 15  1  0  0  0  0
 15 16  2  0  0  0  0
 16 17  1  0  0  0  0
 11 17  2  0  0  0  0
 17 18  1  0  0  0  0
  9 18  1  0  0  0  0
 18 19  1  0  0  0  0
 19 20  1  0  0  0  0
 20 21  1  0  0  0  0
 21 22  2  0  0  0  0
 22 23  1  0  0  0  0
 23 24  1  0  0  0  0
 23 25  2  0  0  0  0
 25 26  1  0  0  0  0
 20 26  2  0  0  0  0
M  END
>  <Name>
CHEMBL18093

>  <Target_Uniprot>
P21731

>  <CHEMBL Canonical SMILES>
CC(C)(CC(=O)O)Cc1nc2cc(Cl)ccc2n1Cc3ccc(Br)cc3

>  <PubMed ID>
8487256

$$$$

  Marvin  08031817322D          

 35 38  0  0  0  0            999 V2000
    4.4910    0.9664    0.0000 O   0  0  0  0  0  0  0  0  0  0  0  0
    3.7765    1.3789    0.0000 C   0  0  0  0  0  0  0  0  0  0  0  0
    3.7765    2.2039    0.0000 O   0  0  0  0  0  0  0  0  0  0  0  0
    3.0620    0.9664    0.0000 C   0  0  0  0  0  0  0  0  0  0  0  0
    3.0620    0.1414    0.0000 C   0  0  0  0  0  0  0  0  0  0  0  0
    2.3475   -0.2711    0.0000 C   0  0  0  0  0  0  0  0  0  0  0  0
    2.3475   -1.0961    0.0000 C   0  0  0  0  0  0  0  0  0  0  0  0
    1.6331   -1.5086    0.0000 C   0  0  0  0  0  0  0  0  0  0  0  0
    1.6331   -2.3336    0.0000 C   0  0  0  0  0  0  0  0  0  0  0  0
    0.9186   -2.7461    0.0000 C   0  0  0  0  0  0  0  0  0  0  0  0
    0.9186   -3.5711    0.0000 C   0  0  0  0  0  0  0  0  0  0  0  0
    1.6331   -3.9836    0.0000 C   0  0  0  0  0  0  0  0  0  0  0  0
    2.3475   -3.5711    0.0000 N   0  0  0  0  0  0  0  0  0  0  0  0
    2.3475   -2.7461    0.0000 C   0  0  0  0  0  0  0  0  0  0  0  0
    0.9186   -1.0961    0.0000 C   0  0  0  0  0  0  0  0  0  0  0  0
    0.9186   -0.2711    0.0000 C   0  0  0  0  0  0  0  0  0  0  0  0
    0.2041    0.1414    0.0000 C   0  0  0  0  0  0  0  0  0  0  0  0
   -0.5103   -0.2711    0.0000 C   0  0  0  0  0  0  0  0  0  0  0  0
   -1.2248    0.1414    0.0000 C   0  0  0  0  0  0  0  0  0  0  0  0
   -1.9393   -0.2711    0.0000 C   0  0  0  0  0  0  0  0  0  0  0  0
   -1.9393   -1.0961    0.0000 C   0  0  0  0  0  0  0  0  0  0  0  0
   -1.2248   -1.5086    0.0000 C   0  0  0  0  0  0  0  0  0  0  0  0
   -0.5103   -1.0961    0.0000 C   0  0  0  0  0  0  0  0  0  0  0  0
    0.2041   -1.5086    0.0000 C   0  0  0  0  0  0  0  0  0  0  0  0
   -2.6537    0.1414    0.0000 N   0  0  0  0  0  0  0  0  0  0  0  0
   -2.6537    0.9664    0.0000 S   0  0  0  0  0  0  0  0  0  0  0  0
   -3.4787    0.9664    0.0000 O   0  0  0  0  0  0  0  0  0  0  0  0
   -1.8287    0.9664    0.0000 O   0  0  0  0  0  0  0  0  0  0  0  0
   -2.6537    1.7914    0.0000 C   0  0  0  0  0  0  0  0  0  0  0  0
   -1.9393    2.2039    0.0000 C   0  0  0  0  0  0  0  0  0  0  0  0
   -1.9393    3.0289    0.0000 C   0  0  0  0  0  0  0  0  0  0  0  0
   -2.6537    3.4414    0.0000 C   0  0  0  0  0  0  0  0  0  0  0  0
   -2.6537    4.2664    0.0000 Cl  0  0  0  0  0  0  0  0  0  0  0  0
   -3.3682    3.0289    0.0000 C   0  0  0  0  0  0  0  0  0  0  0  0
   -3.3682    2.2039    0.0000 C   0  0  0  0  0  0  0  0  0  0  0  0
  1  2  1  0  0  0  0
  2  3  2  0  0  0  0
  2  4  1  0  0  0  0
  4  5  1  0  0  0  0
  5  6  1  0  0  0  0
  6  7  1  0  0  0  0
  7  8  2  0  0  0  0
  8  9  1  0  0  0  0
  9 10  1  0  0  0  0
 10 11  2  0  0  0  0
 11 12  1  0  0  0  0
 12 13  2  0  0  0  0
 13 14  1  0  0  0  0
  9 14  2  0  0  0  0
  8 15  1  0  0  0  0
 15 16  1  0  0  0  0
 16 17  2  0  0  0  0
 17 18  1  0  0  0  0
 18 19  1  0  0  0  0
 19 20  1  0  0  0  0
 20 21  1  0  0  0  0
 21 22  1  0  0  0  0
 22 23  1  0  0  0  0
 18 23  2  0  0  0  0
 23 24  1  0  0  0  0
 15 24  2  0  0  0  0
 20 25  1  0  0  0  0
 25 26  1  0  0  0  0
 26 27  2  0  0  0  0
 26 28  2  0  0  0  0
 26 29  1  0  0  0  0
 29 30  1  0  0  0  0
 30 31  2  0  0  0  0
 31 32  1  0  0  0  0
 32 33  1  0  0  0  0
 32 34  2  0  0  0  0
 34 35  1  0  0  0  0
 29 35  2  0  0  0  0
M  END
>  <Name>
CHEMBL126577

>  <Target_Uniprot>
P21731

>  <CHEMBL Canonical SMILES>
OC(=O)CCC\C=C(\c1cccnc1)/c2ccc3CC(CCc3c2)NS(=O)(=O)c4ccc(Cl)cc4

>  <PubMed ID>
8289199

$$$$

  Marvin  08031817322D          

 30 31  0  0  0  0            999 V2000
   -6.2915   -4.4130    0.0000 C   0  0  0  0  0  0  0  0  0  0  0  0
   -5.4906   -4.2150    0.0000 C   0  0  0  0  0  0  0  0  0  0  0  0
   -5.1068   -3.4847    0.0000 C   0  0  0  0  0  0  0  0  0  0  0  0
   -4.3288   -3.2102    0.0000 C   0  0  0  0  0  0  0  0  0  0  0  0
   -3.9783   -2.4634    0.0000 C   0  0  0  0  0  0  0  0  0  0  0  0
   -3.2056   -2.1743    0.0000 C   0  0  0  0  0  0  0  0  0  0  0  0
   -2.9542   -1.3885    0.0000 C   0  0  0  0  0  0  0  0  0  0  0  0
   -2.1299   -1.4219    0.0000 N   0  0  0  0  0  0  0  0  0  0  0  0
   -1.8839   -0.6349    0.0000 C   0  0  0  0  0  0  0  0  0  0  0  0
   -1.0852   -0.4471    0.0000 C   0  0  0  0  0  0  0  0  0  0  0  0
   -0.5121   -1.0345    0.0000 O   0  0  0  0  0  0  0  0  0  0  0  0
   -0.8634    0.3324    0.0000 N   0  0  0  0  0  0  0  0  0  0  0  0
   -0.0958    0.5962    0.0000 C   0  0  0  0  0  0  0  0  0  0  0  0
    0.2522    1.3380    0.0000 C   0  0  0  0  0  0  0  0  0  0  0  0
    1.0094    1.6442    0.0000 C   0  0  0  0  0  0  0  0  0  0  0  0
    1.6502    1.1386    0.0000 C   0  0  0  0  0  0  0  0  0  0  0  0
    2.3908    1.4526    0.0000 C   0  0  0  0  0  0  0  0  0  0  0  0
    3.0753    1.0179    0.0000 C   0  0  0  0  0  0  0  0  0  0  0  0
    3.8480    1.2942    0.0000 C   0  0  0  0  0  0  0  0  0  0  0  0
    4.5595    0.8775    0.0000 C   0  0  0  0  0  0  0  0  0  0  0  0
    5.3528    1.1043    0.0000 C   0  0  0  0  0  0  0  0  0  0  0  0
    6.0252    0.6263    0.0000 C   0  0  0  0  0  0  0  0  0  0  0  0
    5.8280   -0.1748    0.0000 O   0  0  0  0  0  0  0  0  0  0  0  0
    6.7299    1.0554    0.0000 O   0  0  0  0  0  0  0  0  0  0  0  0
    0.9009    2.5289    0.0000 C   0  0  0  0  0  0  0  0  0  0  0  0
    0.3919    3.3062    0.0000 C   0  0  0  0  0  0  0  0  0  0  0  0
   -0.4325    2.9827    0.0000 C   0  0  0  0  0  0  0  0  0  0  0  0
   -0.2805    2.0584    0.0000 C   0  0  0  0  0  0  0  0  0  0  0  0
    0.1986    2.5521    0.0000 O   0  0  0  0  0  0  0  0  0  0  0  0
   -3.5736   -0.8435    0.0000 S   0  0  0  0  0  0  0  0  0  0  0  0
  1  2  1  0  0  0  0
  2  3  1  0  0  0  0
  3  4  1  0  0  0  0
  4  5  1  0  0  0  0
  5  6  1  0  0  0  0
  6  7  1  0  0  0  0
  7  8  2  0  0  0  0
  8  9  1  0  0  0  0
  9 10  1  0  0  0  0
 10 11  2  0  0  0  0
 10 12  1  0  0  0  0
 12 13  1  0  0  0  0
 13 14  1  0  0  0  0
 14 15  1  0  0  0  0
 15 16  1  0  0  0  0
 16 17  1  0  0  0  0
 17 18  2  0  0  0  0
 18 19  1  0  0  0  0
 19 20  1  0  0  0  0
 20 21  1  0  0  0  0
 21 22  1  0  0  0  0
 22 23  2  0  0  0  0
 22 24  1  0  0  0  0
 15 25  1  0  0  0  0
 25 26  1  0  0  0  0
 26 27  1  0  0  0  0
 27 28  1  0  0  0  0
 14 28  1  0  0  0  0
 28 29  1  0  0  0  0
 25 29  1  0  0  0  0
  7 30  1  0  0  0  0
M  END
>  <Name>
CHEMBL79287

>  <Target_Uniprot>
P21731

>  <CHEMBL Canonical SMILES>
CCCCCC\C(=N\CC(=O)NCC1C(C\C=C\CCCC(=O)O)C2CCC1O2)\S

>  <PubMed ID>
2391688

$$$$

  Marvin  08031817322D          

 39 42  0  0  0  0            999 V2000
    0.4226   -6.3565    0.0000 O   0  0  0  0  0  0  0  0  0  0  0  0
   -0.3844   -6.5280    0.0000 C   0  0  0  0  0  0  0  0  0  0  0  0
   -0.6393   -7.3126    0.0000 O   0  0  0  0  0  0  0  0  0  0  0  0
   -0.9364   -5.9149    0.0000 C   0  0  0  0  0  0  0  0  0  0  0  0
   -0.6815   -5.1303    0.0000 C   0  0  0  0  0  0  0  0  0  0  0  0
   -1.2335   -4.5172    0.0000 C   0  0  0  0  0  0  0  0  0  0  0  0
   -0.9786   -3.7326    0.0000 C   0  0  0  0  0  0  0  0  0  0  0  0
   -1.5306   -3.1195    0.0000 C   0  0  0  0  0  0  0  0  0  0  0  0
   -1.2757   -2.3348    0.0000 C   0  0  0  0  0  0  0  0  0  0  0  0
   -1.8277   -1.7217    0.0000 C   0  0  0  0  0  0  0  0  0  0  0  0
   -1.5728   -0.9371    0.0000 C   0  0  0  0  0  0  0  0  0  0  0  0
   -2.1248   -0.3240    0.0000 C   0  0  0  0  0  0  0  0  0  0  0  0
   -2.9318   -0.4956    0.0000 C   0  0  0  0  0  0  0  0  0  0  0  0
   -3.1867   -1.2802    0.0000 N   0  0  0  0  0  0  0  0  0  0  0  0
   -2.6347   -1.8933    0.0000 C   0  0  0  0  0  0  0  0  0  0  0  0
   -0.4687   -2.1633    0.0000 C   0  0  0  0  0  0  0  0  0  0  0  0
    0.0833   -2.7764    0.0000 C   0  0  0  0  0  0  0  0  0  0  0  0
    0.8903   -2.6049    0.0000 C   0  0  0  0  0  0  0  0  0  0  0  0
    1.1452   -1.8203    0.0000 C   0  0  0  0  0  0  0  0  0  0  0  0
    0.5932   -1.2072    0.0000 C   0  0  0  0  0  0  0  0  0  0  0  0
   -0.2138   -1.3787    0.0000 C   0  0  0  0  0  0  0  0  0  0  0  0
    0.8481   -0.4225    0.0000 C   0  0  0  0  0  0  0  0  0  0  0  0
    1.6328   -0.1676    0.0000 O   0  0  0  0  0  0  0  0  0  0  0  0
    1.6328    0.6574    0.0000 C   0  0  0  0  0  0  0  0  0  0  0  0
    0.8481    0.9123    0.0000 C   0  0  0  0  0  0  0  0  0  0  0  0
    0.3632    0.2449    0.0000 N   0  0  0  0  0  0  0  0  0  0  0  0
    0.5932    1.6970    0.0000 C   0  0  0  0  0  0  0  0  0  0  0  0
   -0.2138    1.8685    0.0000 O   0  0  0  0  0  0  0  0  0  0  0  0
    1.1452    2.3101    0.0000 N   0  0  0  0  0  0  0  0  0  0  0  0
    0.8903    3.0947    0.0000 C   0  0  0  0  0  0  0  0  0  0  0  0
    1.4423    3.7078    0.0000 C   0  0  0  0  0  0  0  0  0  0  0  0
    1.1874    4.4924    0.0000 C   0  0  0  0  0  0  0  0  0  0  0  0
    1.7394    5.1055    0.0000 C   0  0  0  0  0  0  0  0  0  0  0  0
    1.4845    5.8901    0.0000 C   0  0  0  0  0  0  0  0  0  0  0  0
    2.0365    6.5032    0.0000 C   0  0  0  0  0  0  0  0  0  0  0  0
    1.7816    7.2878    0.0000 C   0  0  0  0  0  0  0  0  0  0  0  0
    0.9746    7.4594    0.0000 C   0  0  0  0  0  0  0  0  0  0  0  0
    0.4226    6.8463    0.0000 C   0  0  0  0  0  0  0  0  0  0  0  0
    0.6775    6.0616    0.0000 C   0  0  0  0  0  0  0  0  0  0  0  0
  1  2  1  0  0  0  0
  2  3  2  0  0  0  0
  2  4  1  0  0  0  0
  4  5  1  0  0  0  0
  5  6  1  0  0  0  0
  6  7  1  0  0  0  0
  7  8  1  0  0  0  0
  8  9  2  0  0  0  0
  9 10  1  0  0  0  0
 10 11  1  0  0  0  0
 11 12  2  0  0  0  0
 12 13  1  0  0  0  0
 13 14  2  0  0  0  0
 14 15  1  0  0  0  0
 10 15  2  0  0  0  0
  9 16  1  0  0  0  0
 16 17  1  0  0  0  0
 17 18  2  0  0  0  0
 18 19  1  0  0  0  0
 19 20  2  0  0  0  0
 20 21  1  0  0  0  0
 16 21  2  0  0  0  0
 20 22  1  0  0  0  0
 22 23  1  0  0  0  0
 23 24  1  0  0  0  0
 24 25  2  0  0  0  0
 25 26  1  0  0  0  0
 22 26  2  0  0  0  0
 25 27  1  0  0  0  0
 27 28  2  0  0  0  0
 27 29  1  0  0  0  0
 29 30  1  0  0  0  0
 30 31  1  0  0  0  0
 31 32  1  0  0  0  0
 32 33  1  0  0  0  0
 33 34  1  0  0  0  0
 34 35  1  0  0  0  0
 35 36  1  0  0  0  0
 36 37  1  0  0  0  0
 37 38  1  0  0  0  0
 38 39  1  0  0  0  0
 34 39  1  0  0  0  0
M  END
>  <Name>
CHEMBL293764

>  <Target_Uniprot>
P21731

>  <CHEMBL Canonical SMILES>
OC(=O)CCCC\C=C(\c1cccnc1)/c2cccc(c2)c3occ(n3)C(=O)NCCCCC4CCCCC4

>  <PubMed ID>
9873463

$$$$

  Marvin  08031817322D          

 27 29  0  0  0  0            999 V2000
    1.0173    1.7562    0.0000 C   0  0  0  0  0  0  0  0  0  0  0  0
    1.7318    1.3437    0.0000 C   0  0  0  0  0  0  0  0  0  0  0  0
    2.4463    0.9312    0.0000 C   0  0  0  0  0  0  0  0  0  0  0  0
    2.1443    2.0582    0.0000 C   0  0  0  0  0  0  0  0  0  0  0  0
    2.9693    2.0582    0.0000 C   0  0  0  0  0  0  0  0  0  0  0  0
    3.3818    1.3437    0.0000 O   0  0  0  0  0  0  0  0  0  0  0  0
    3.3818    2.7726    0.0000 O   0  0  0  0  0  0  0  0  0  0  0  0
    1.3193    0.6292    0.0000 C   0  0  0  0  0  0  0  0  0  0  0  0
    0.4943    0.6292    0.0000 C   0  0  0  0  0  0  0  0  0  0  0  0
    0.0094    1.2967    0.0000 N   0  0  0  0  0  0  0  0  0  0  0  0
   -0.7752    1.0417    0.0000 C   0  0  0  0  0  0  0  0  0  0  0  0
   -1.4897    1.4542    0.0000 C   0  0  0  0  0  0  0  0  0  0  0  0
   -2.2042    1.0417    0.0000 C   0  0  0  0  0  0  0  0  0  0  0  0
   -2.9187    1.4542    0.0000 Cl  0  0  0  0  0  0  0  0  0  0  0  0
   -2.2042    0.2167    0.0000 C   0  0  0  0  0  0  0  0  0  0  0  0
   -1.4897   -0.1958    0.0000 C   0  0  0  0  0  0  0  0  0  0  0  0
   -0.7752    0.2167    0.0000 C   0  0  0  0  0  0  0  0  0  0  0  0
    0.0094   -0.0382    0.0000 N   0  0  0  0  0  0  0  0  0  0  0  0
    0.2643   -0.8228    0.0000 C   0  0  0  0  0  0  0  0  0  0  0  0
   -0.2877   -1.4359    0.0000 C   0  0  0  0  0  0  0  0  0  0  0  0
   -1.0947   -1.2644    0.0000 C   0  0  0  0  0  0  0  0  0  0  0  0
   -1.6467   -1.8775    0.0000 C   0  0  0  0  0  0  0  0  0  0  0  0
   -1.3918   -2.6621    0.0000 C   0  0  0  0  0  0  0  0  0  0  0  0
   -1.9438   -3.2752    0.0000 Cl  0  0  0  0  0  0  0  0  0  0  0  0
   -0.5848   -2.8336    0.0000 C   0  0  0  0  0  0  0  0  0  0  0  0
   -0.3299   -3.6183    0.0000 Cl  0  0  0  0  0  0  0  0  0  0  0  0
   -0.0328   -2.2205    0.0000 C   0  0  0  0  0  0  0  0  0  0  0  0
  1  2  1  0  0  0  0
  2  3  1  0  0  0  0
  2  4  1  0  0  0  0
  4  5  1  0  0  0  0
  5  6  2  0  0  0  0
  5  7  1  0  0  0  0
  2  8  1  0  0  0  0
  8  9  1  0  0  0  0
  9 10  2  0  0  0  0
 10 11  1  0  0  0  0
 11 12  1  0  0  0  0
 12 13  2  0  0  0  0
 13 14  1  0  0  0  0
 13 15  1  0  0  0  0
 15 16  2  0  0  0  0
 16 17  1  0  0  0  0
 11 17  2  0  0  0  0
 17 18  1  0  0  0  0
  9 18  1  0  0  0  0
 18 19  1  0  0  0  0
 19 20  1  0  0  0  0
 20 21  1  0  0  0  0
 21 22  2  0  0  0  0
 22 23  1  0  0  0  0
 23 24  1  0  0  0  0
 23 25  2  0  0  0  0
 25 26  1  0  0  0  0
 25 27  1  0  0  0  0
 20 27  2  0  0  0  0
M  END
>  <Name>
CHEMBL17528

>  <Target_Uniprot>
P21731

>  <CHEMBL Canonical SMILES>
CC(C)(CC(=O)O)Cc1nc2cc(Cl)ccc2n1Cc3ccc(Cl)c(Cl)c3

>  <PubMed ID>
8487256

$$$$

  Marvin  08031817322D          

 26 28  0  0  0  0            999 V2000
    1.0046    1.6170    0.0000 C   0  0  0  0  0  0  0  0  0  0  0  0
    1.7191    1.2045    0.0000 C   0  0  0  0  0  0  0  0  0  0  0  0
    2.4336    0.7920    0.0000 C   0  0  0  0  0  0  0  0  0  0  0  0
    2.1316    1.9190    0.0000 C   0  0  0  0  0  0  0  0  0  0  0  0
    2.9566    1.9190    0.0000 C   0  0  0  0  0  0  0  0  0  0  0  0
    3.3691    1.2045    0.0000 O   0  0  0  0  0  0  0  0  0  0  0  0
    3.3691    2.6335    0.0000 O   0  0  0  0  0  0  0  0  0  0  0  0
    1.3066    0.4901    0.0000 C   0  0  0  0  0  0  0  0  0  0  0  0
    0.4816    0.4901    0.0000 C   0  0  0  0  0  0  0  0  0  0  0  0
   -0.0033    1.1575    0.0000 N   0  0  0  0  0  0  0  0  0  0  0  0
   -0.7879    0.9026    0.0000 C   0  0  0  0  0  0  0  0  0  0  0  0
   -1.5024    1.3151    0.0000 C   0  0  0  0  0  0  0  0  0  0  0  0
   -2.2169    0.9026    0.0000 C   0  0  0  0  0  0  0  0  0  0  0  0
   -2.9314    1.3151    0.0000 F   0  0  0  0  0  0  0  0  0  0  0  0
   -2.2169    0.0776    0.0000 C   0  0  0  0  0  0  0  0  0  0  0  0
   -1.5024   -0.3349    0.0000 C   0  0  0  0  0  0  0  0  0  0  0  0
   -0.7879    0.0776    0.0000 C   0  0  0  0  0  0  0  0  0  0  0  0
   -0.0033   -0.1774    0.0000 N   0  0  0  0  0  0  0  0  0  0  0  0
    0.2516   -0.9620    0.0000 C   0  0  0  0  0  0  0  0  0  0  0  0
   -0.3004   -1.5751    0.0000 C   0  0  0  0  0  0  0  0  0  0  0  0
   -1.1074   -1.4036    0.0000 C   0  0  0  0  0  0  0  0  0  0  0  0
   -1.6594   -2.0167    0.0000 C   0  0  0  0  0  0  0  0  0  0  0  0
   -1.4045   -2.8013    0.0000 C   0  0  0  0  0  0  0  0  0  0  0  0
   -1.9565   -3.4144    0.0000 Br  0  0  0  0  0  0  0  0  0  0  0  0
   -0.5975   -2.9728    0.0000 C   0  0  0  0  0  0  0  0  0  0  0  0
   -0.0455   -2.3597    0.0000 C   0  0  0  0  0  0  0  0  0  0  0  0
  1  2  1  0  0  0  0
  2  3  1  0  0  0  0
  2  4  1  0  0  0  0
  4  5  1  0  0  0  0
  5  6  2  0  0  0  0
  5  7  1  0  0  0  0
  2  8  1  0  0  0  0
  8  9  1  0  0  0  0
  9 10  2  0  0  0  0
 10 11  1  0  0  0  0
 11 12  1  0  0  0  0
 12 13  2  0  0  0  0
 13 14  1  0  0  0  0
 13 15  1  0  0  0  0
 15 16  2  0  0  0  0
 16 17  1  0  0  0  0
 11 17  2  0  0  0  0
 17 18  1  0  0  0  0
  9 18  1  0  0  0  0
 18 19  1  0  0  0  0
 19 20  1  0  0  0  0
 20 21  1  0  0  0  0
 21 22  2  0  0  0  0
 22 23  1  0  0  0  0
 23 24  1  0  0  0  0
 23 25  2  0  0  0  0
 25 26  1  0  0  0  0
 20 26  2  0  0  0  0
M  END
>  <Name>
CHEMBL17640

>  <Target_Uniprot>
P21731

>  <CHEMBL Canonical SMILES>
CC(C)(CC(=O)O)Cc1nc2cc(F)ccc2n1Cc3ccc(Br)cc3

>  <PubMed ID>
8487256

$$$$

  Marvin  08031817322D          

 31 35  0  0  0  0            999 V2000
    2.9461    1.7506    0.0000 C   0  0  0  0  0  0  0  0  0  0  0  0
    2.2317    1.3381    0.0000 O   0  0  0  0  0  0  0  0  0  0  0  0
    1.5172    1.7506    0.0000 C   0  0  0  0  0  0  0  0  0  0  0  0
    1.5172    2.5756    0.0000 C   0  0  0  0  0  0  0  0  0  0  0  0
    0.8027    2.9881    0.0000 C   0  0  0  0  0  0  0  0  0  0  0  0
    0.0882    2.5756    0.0000 C   0  0  0  0  0  0  0  0  0  0  0  0
   -0.6964    2.8305    0.0000 N   0  0  0  0  0  0  0  0  0  0  0  0
   -1.1813    2.1631    0.0000 C   0  0  0  0  0  0  0  0  0  0  0  0
   -0.6964    1.4957    0.0000 N   0  0  0  0  0  0  0  0  0  0  0  0
   -0.9513    0.7110    0.0000 C   0  0  0  0  0  0  0  0  0  0  0  0
   -0.3993    0.0980    0.0000 C   0  0  0  0  0  0  0  0  0  0  0  0
   -0.6542   -0.6867    0.0000 C   0  0  0  0  0  0  0  0  0  0  0  0
   -1.4718   -0.7974    0.0000 C   0  0  0  0  0  0  0  0  0  0  0  0
   -1.8735   -0.0769    0.0000 C   0  0  0  0  0  0  0  0  0  0  0  0
   -2.6984   -0.0645    0.0000 C   0  0  0  0  0  0  0  0  0  0  0  0
   -3.1216   -0.7727    0.0000 C   0  0  0  0  0  0  0  0  0  0  0  0
   -2.7198   -1.4933    0.0000 C   0  0  0  0  0  0  0  0  0  0  0  0
   -1.8949   -1.5056    0.0000 C   0  0  0  0  0  0  0  0  0  0  0  0
   -1.6050   -2.2780    0.0000 C   0  0  0  0  0  0  0  0  0  0  0  0
   -0.8204   -2.5330    0.0000 O   0  0  0  0  0  0  0  0  0  0  0  0
   -0.1319   -2.0785    0.0000 C   0  0  0  0  0  0  0  0  0  0  0  0
    0.5427   -2.5534    0.0000 C   0  0  0  0  0  0  0  0  0  0  0  0
    1.2913   -2.2066    0.0000 C   0  0  0  0  0  0  0  0  0  0  0  0
    1.3653   -1.3849    0.0000 C   0  0  0  0  0  0  0  0  0  0  0  0
    0.6907   -0.9100    0.0000 C   0  0  0  0  0  0  0  0  0  0  0  0
   -0.0579   -1.2568    0.0000 C   0  0  0  0  0  0  0  0  0  0  0  0
    2.1138   -1.0381    0.0000 C   0  0  0  0  0  0  0  0  0  0  0  0
    2.1878   -0.2164    0.0000 O   0  0  0  0  0  0  0  0  0  0  0  0
    2.7885   -1.5130    0.0000 O   0  0  0  0  0  0  0  0  0  0  0  0
    0.0882    1.7506    0.0000 C   0  0  0  0  0  0  0  0  0  0  0  0
    0.8027    1.3381    0.0000 C   0  0  0  0  0  0  0  0  0  0  0  0
  1  2  1  0  0  0  0
  2  3  1  0  0  0  0
  3  4  1  0  0  0  0
  4  5  2  0  0  0  0
  5  6  1  0  0  0  0
  6  7  1  0  0  0  0
  7  8  2  0  0  0  0
  8  9  1  0  0  0  0
  9 10  1  0  0  0  0
 10 11  1  0  0  0  0
 11 12  2  0  0  0  0
 12 13  1  0  0  0  0
 13 14  1  0  0  0  0
 14 15  2  0  0  0  0
 15 16  1  0  0  0  0
 16 17  2  0  0  0  0
 17 18  1  0  0  0  0
 13 18  2  0  0  0  0
 18 19  1  0  0  0  0
 19 20  1  0  0  0  0
 20 21  1  0  0  0  0
 21 22  1  0  0  0  0
 22 23  2  0  0  0  0
 23 24  1  0  0  0  0
 24 25  2  0  0  0  0
 25 26  1  0  0  0  0
 12 26  1  0  0  0  0
 21 26  2  0  0  0  0
 24 27  1  0  0  0  0
 27 28  2  0  0  0  0
 27 29  1  0  0  0  0
  9 30  1  0  0  0  0
  6 30  2  0  0  0  0
 30 31  1  0  0  0  0
  3 31  2  0  0  0  0
M  END
>  <Name>
CHEMBL325523

>  <Target_Uniprot>
P21731

>  <CHEMBL Canonical SMILES>
COc1ccc2ncn(C\C=C\3/c4ccccc4COc5ccc(cc35)C(=O)O)c2c1

>  <PubMed ID>
1388208

$$$$

  Marvin  08031817322D          

 35 38  0  0  0  0            999 V2000
   -2.5569   -4.8881    0.0000 Cl  0  0  0  0  0  0  0  0  0  0  0  0
   -2.5569   -4.0631    0.0000 C   0  0  0  0  0  0  0  0  0  0  0  0
   -1.8424   -3.6506    0.0000 C   0  0  0  0  0  0  0  0  0  0  0  0
   -1.8424   -2.8256    0.0000 C   0  0  0  0  0  0  0  0  0  0  0  0
   -2.5569   -2.4131    0.0000 C   0  0  0  0  0  0  0  0  0  0  0  0
   -3.2713   -2.8256    0.0000 C   0  0  0  0  0  0  0  0  0  0  0  0
   -3.2713   -3.6506    0.0000 C   0  0  0  0  0  0  0  0  0  0  0  0
   -2.5569   -1.5881    0.0000 S   0  0  0  0  0  0  0  0  0  0  0  0
   -3.3819   -1.5881    0.0000 O   0  0  0  0  0  0  0  0  0  0  0  0
   -1.7319   -1.5881    0.0000 O   0  0  0  0  0  0  0  0  0  0  0  0
   -2.5569   -0.7631    0.0000 N   0  0  0  0  0  0  0  0  0  0  0  0
   -1.8424   -0.3506    0.0000 C   0  0  0  0  0  0  0  0  0  0  0  0
   -1.8424    0.4744    0.0000 C   0  0  0  0  0  0  0  0  0  0  0  0
   -1.1279    0.8869    0.0000 C   0  0  0  0  0  0  0  0  0  0  0  0
   -0.4134    0.4744    0.0000 C   0  0  0  0  0  0  0  0  0  0  0  0
    0.3010    0.8869    0.0000 C   0  0  0  0  0  0  0  0  0  0  0  0
    0.3010    1.7119    0.0000 C   0  0  0  0  0  0  0  0  0  0  0  0
   -0.4134    2.1244    0.0000 C   0  0  0  0  0  0  0  0  0  0  0  0
   -1.1279    1.7119    0.0000 C   0  0  0  0  0  0  0  0  0  0  0  0
    1.0155    2.1244    0.0000 C   0  0  0  0  0  0  0  0  0  0  0  0
    1.7300    1.7119    0.0000 C   0  0  0  0  0  0  0  0  0  0  0  0
    1.7300    0.8869    0.0000 C   0  0  0  0  0  0  0  0  0  0  0  0
    2.4444    0.4744    0.0000 C   0  0  0  0  0  0  0  0  0  0  0  0
    2.4444   -0.3506    0.0000 C   0  0  0  0  0  0  0  0  0  0  0  0
    3.1589   -0.7631    0.0000 C   0  0  0  0  0  0  0  0  0  0  0  0
    3.2452   -1.5836    0.0000 N   0  0  0  0  0  0  0  0  0  0  0  0
    4.0521   -1.7551    0.0000 N   0  0  0  0  0  0  0  0  0  0  0  0
    4.4646   -1.0406    0.0000 N   0  0  0  0  0  0  0  0  0  0  0  0
    3.9126   -0.4275    0.0000 N   0  0  0  0  0  0  0  0  0  0  0  0
    1.0155    2.9494    0.0000 C   0  0  0  0  0  0  0  0  0  0  0  0
    1.7300    3.3619    0.0000 C   0  0  0  0  0  0  0  0  0  0  0  0
    1.7300    4.1869    0.0000 C   0  0  0  0  0  0  0  0  0  0  0  0
    1.0155    4.5994    0.0000 C   0  0  0  0  0  0  0  0  0  0  0  0
    0.3010    4.1869    0.0000 N   0  0  0  0  0  0  0  0  0  0  0  0
    0.3010    3.3619    0.0000 C   0  0  0  0  0  0  0  0  0  0  0  0
  1  2  1  0  0  0  0
  2  3  1  0  0  0  0
  3  4  2  0  0  0  0
  4  5  1  0  0  0  0
  5  6  2  0  0  0  0
  6  7  1  0  0  0  0
  2  7  2  0  0  0  0
  5  8  1  0  0  0  0
  8  9  2  0  0  0  0
  8 10  2  0  0  0  0
  8 11  1  0  0  0  0
 11 12  1  0  0  0  0
 12 13  1  0  0  0  0
 13 14  1  0  0  0  0
 14 15  1  0  0  0  0
 15 16  2  0  0  0  0
 16 17  1  0  0  0  0
 17 18  2  0  0  0  0
 18 19  1  0  0  0  0
 14 19  2  0  0  0  0
 17 20  1  0  0  0  0
 20 21  2  0  0  0  0
 21 22  1  0  0  0  0
 22 23  1  0  0  0  0
 23 24  1  0  0  0  0
 24 25  1  0  0  0  0
 25 26  2  0  0  0  0
 26 27  1  0  0  0  0
 27 28  2  0  0  0  0
 28 29  1  0  0  0  0
 25 29  1  0  0  0  0
 20 30  1  0  0  0  0
 30 31  1  0  0  0  0
 31 32  2  0  0  0  0
 32 33  1  0  0  0  0
 33 34  2  0  0  0  0
 34 35  1  0  0  0  0
 30 35  2  0  0  0  0
M  END
>  <Name>
CHEMBL126185

>  <Target_Uniprot>
P21731

>  <CHEMBL Canonical SMILES>
Clc1ccc(cc1)S(=O)(=O)NCCc2ccc(cc2)\C(=C/CCCc3nnn[nH]3)\c4cccnc4

>  <PubMed ID>
8289199

$$$$

  Marvin  08031817322D          

 33 35  0  0  0  0            999 V2000
    4.0703   -3.3750    0.0000 O   0  0  0  0  0  0  0  0  0  0  0  0
    4.0703   -2.5500    0.0000 C   0  0  0  0  0  0  0  0  0  0  0  0
    4.7848   -2.1375    0.0000 O   0  0  0  0  0  0  0  0  0  0  0  0
    3.3558   -2.1375    0.0000 C   0  0  0  0  0  0  0  0  0  0  0  0
    2.6414   -2.5500    0.0000 C   0  0  0  0  0  0  0  0  0  0  0  0
    1.9269   -2.1375    0.0000 C   0  0  0  0  0  0  0  0  0  0  0  0
    1.2124   -2.5500    0.0000 C   0  0  0  0  0  0  0  0  0  0  0  0
    0.4980   -2.1375    0.0000 C   0  0  0  0  0  0  0  0  0  0  0  0
   -0.2165   -2.5500    0.0000 C   0  0  0  0  0  0  0  0  0  0  0  0
   -0.9310   -2.1375    0.0000 C   0  0  0  0  0  0  0  0  0  0  0  0
   -1.6454   -2.5500    0.0000 C   0  0  0  0  0  0  0  0  0  0  0  0
   -1.6454   -3.3750    0.0000 C   0  0  0  0  0  0  0  0  0  0  0  0
   -0.9310   -3.7875    0.0000 N   0  0  0  0  0  0  0  0  0  0  0  0
   -0.2165   -3.3750    0.0000 C   0  0  0  0  0  0  0  0  0  0  0  0
    0.4980   -1.3125    0.0000 C   0  0  0  0  0  0  0  0  0  0  0  0
    1.2124   -0.9000    0.0000 C   0  0  0  0  0  0  0  0  0  0  0  0
    1.2124   -0.0750    0.0000 C   0  0  0  0  0  0  0  0  0  0  0  0
    0.4980    0.3375    0.0000 C   0  0  0  0  0  0  0  0  0  0  0  0
   -0.2165   -0.0750    0.0000 C   0  0  0  0  0  0  0  0  0  0  0  0
   -0.9310    0.3375    0.0000 C   0  0  0  0  0  0  0  0  0  0  0  0
   -0.9310    1.1625    0.0000 C   0  0  0  0  0  0  0  0  0  0  0  0
   -1.6454    1.5750    0.0000 N   0  0  0  0  0  0  0  0  0  0  0  0
   -1.6454    2.4000    0.0000 S   0  0  0  0  0  0  0  0  0  0  0  0
   -2.4704    2.4000    0.0000 O   0  0  0  0  0  0  0  0  0  0  0  0
   -0.8204    2.4000    0.0000 O   0  0  0  0  0  0  0  0  0  0  0  0
   -1.6454    3.2250    0.0000 C   0  0  0  0  0  0  0  0  0  0  0  0
   -0.9310    3.6375    0.0000 C   0  0  0  0  0  0  0  0  0  0  0  0
   -0.9310    4.4625    0.0000 C   0  0  0  0  0  0  0  0  0  0  0  0
   -1.6454    4.8750    0.0000 C   0  0  0  0  0  0  0  0  0  0  0  0
   -1.6454    5.7000    0.0000 Cl  0  0  0  0  0  0  0  0  0  0  0  0
   -2.3599    4.4625    0.0000 C   0  0  0  0  0  0  0  0  0  0  0  0
   -2.3599    3.6375    0.0000 C   0  0  0  0  0  0  0  0  0  0  0  0
   -0.2165   -0.9000    0.0000 C   0  0  0  0  0  0  0  0  0  0  0  0
  1  2  1  0  0  0  0
  2  3  2  0  0  0  0
  2  4  1  0  0  0  0
  4  5  1  0  0  0  0
  5  6  1  0  0  0  0
  6  7  1  0  0  0  0
  7  8  2  0  0  0  0
  8  9  1  0  0  0  0
  9 10  1  0  0  0  0
 10 11  2  0  0  0  0
 11 12  1  0  0  0  0
 12 13  2  0  0  0  0
 13 14  1  0  0  0  0
  9 14  2  0  0  0  0
  8 15  1  0  0  0  0
 15 16  1  0  0  0  0
 16 17  2  0  0  0  0
 17 18  1  0  0  0  0
 18 19  2  0  0  0  0
 19 20  1  0  0  0  0
 20 21  1  0  0  0  0
 21 22  1  0  0  0  0
 22 23  1  0  0  0  0
 23 24  2  0  0  0  0
 23 25  2  0  0  0  0
 23 26  1  0  0  0  0
 26 27  1  0  0  0  0
 27 28  2  0  0  0  0
 28 29  1  0  0  0  0
 29 30  1  0  0  0  0
 29 31  2  0  0  0  0
 31 32  1  0  0  0  0
 26 32  2  0  0  0  0
 19 33  1  0  0  0  0
 15 33  2  0  0  0  0
M  END
>  <Name>
CHEMBL127380

>  <Target_Uniprot>
P21731

>  <CHEMBL Canonical SMILES>
OC(=O)CCC\C=C(\c1cccnc1)/c2cccc(CCNS(=O)(=O)c3ccc(Cl)cc3)c2

>  <PubMed ID>
8289199

$$$$

  Marvin  08031817322D          

 31 33  0  0  0  0            999 V2000
   -2.9962   -3.5129    0.0000 O   0  0  0  0  0  0  0  0  0  0  0  0
   -2.9962   -2.6879    0.0000 C   0  0  0  0  0  0  0  0  0  0  0  0
   -3.7106   -2.2754    0.0000 O   0  0  0  0  0  0  0  0  0  0  0  0
   -2.2817   -2.2754    0.0000 C   0  0  0  0  0  0  0  0  0  0  0  0
   -1.5672   -2.6879    0.0000 C   0  0  0  0  0  0  0  0  0  0  0  0
   -0.8528   -2.2754    0.0000 C   0  0  0  0  0  0  0  0  0  0  0  0
   -0.8528   -1.4504    0.0000 C   0  0  0  0  0  0  0  0  0  0  0  0
   -0.1383   -1.0379    0.0000 C   0  0  0  0  0  0  0  0  0  0  0  0
   -0.1383   -0.2129    0.0000 C   0  0  0  0  0  0  0  0  0  0  0  0
   -0.8528    0.1996    0.0000 C   0  0  0  0  0  0  0  0  0  0  0  0
   -0.8528    1.0246    0.0000 C   0  0  0  0  0  0  0  0  0  0  0  0
   -0.1383    1.4371    0.0000 C   0  0  0  0  0  0  0  0  0  0  0  0
   -0.1383    2.2621    0.0000 N   0  0  0  0  0  0  0  0  0  0  0  0
    0.5762    2.6746    0.0000 S   0  0  0  0  0  0  0  0  0  0  0  0
    0.1637    3.3891    0.0000 O   0  0  0  0  0  0  0  0  0  0  0  0
    0.9887    1.9601    0.0000 O   0  0  0  0  0  0  0  0  0  0  0  0
    1.2907    3.0871    0.0000 C   0  0  0  0  0  0  0  0  0  0  0  0
    2.0051    2.6746    0.0000 C   0  0  0  0  0  0  0  0  0  0  0  0
    2.7196    3.0871    0.0000 C   0  0  0  0  0  0  0  0  0  0  0  0
    2.7196    3.9121    0.0000 C   0  0  0  0  0  0  0  0  0  0  0  0
    3.4341    4.3246    0.0000 Cl  0  0  0  0  0  0  0  0  0  0  0  0
    2.0051    4.3246    0.0000 C   0  0  0  0  0  0  0  0  0  0  0  0
    1.2907    3.9121    0.0000 C   0  0  0  0  0  0  0  0  0  0  0  0
   -1.5672   -0.2129    0.0000 C   0  0  0  0  0  0  0  0  0  0  0  0
   -1.5672   -1.0379    0.0000 C   0  0  0  0  0  0  0  0  0  0  0  0
   -0.1383   -2.6879    0.0000 C   0  0  0  0  0  0  0  0  0  0  0  0
   -0.1383   -3.5129    0.0000 C   0  0  0  0  0  0  0  0  0  0  0  0
    0.5762   -3.9254    0.0000 C   0  0  0  0  0  0  0  0  0  0  0  0
    1.2907   -3.5129    0.0000 C   0  0  0  0  0  0  0  0  0  0  0  0
    1.2907   -2.6879    0.0000 N   0  0  0  0  0  0  0  0  0  0  0  0
    0.5762   -2.2754    0.0000 C   0  0  0  0  0  0  0  0  0  0  0  0
  1  2  1  0  0  0  0
  2  3  2  0  0  0  0
  2  4  1  0  0  0  0
  4  5  1  0  0  0  0
  5  6  2  0  0  0  0
  6  7  1  0  0  0  0
  7  8  1  0  0  0  0
  8  9  2  0  0  0  0
  9 10  1  0  0  0  0
 10 11  1  0  0  0  0
 11 12  1  0  0  0  0
 12 13  1  0  0  0  0
 13 14  1  0  0  0  0
 14 15  2  0  0  0  0
 14 16  2  0  0  0  0
 14 17  1  0  0  0  0
 17 18  1  0  0  0  0
 18 19  2  0  0  0  0
 19 20  1  0  0  0  0
 20 21  1  0  0  0  0
 20 22  2  0  0  0  0
 22 23  1  0  0  0  0
 17 23  2  0  0  0  0
 10 24  2  0  0  0  0
 24 25  1  0  0  0  0
  7 25  2  0  0  0  0
  6 26  1  0  0  0  0
 26 27  1  0  0  0  0
 27 28  2  0  0  0  0
 28 29  1  0  0  0  0
 29 30  2  0  0  0  0
 30 31  1  0  0  0  0
 26 31  2  0  0  0  0
M  END
>  <Name>
CHEMBL340504

>  <Target_Uniprot>
P21731

>  <CHEMBL Canonical SMILES>
OC(=O)C\C=C(/c1ccc(CCNS(=O)(=O)c2ccc(Cl)cc2)cc1)\c3cccnc3

>  <PubMed ID>
8289199

$$$$

  Marvin  08031817322D          

 29 32  0  0  0  0            999 V2000
    0.5219    0.4052    0.0000 C   0  0  0  0  0  0  0  0  0  0  0  0
    1.1893   -0.0797    0.0000 S   0  0  0  0  0  0  0  0  0  0  0  0
    1.8567   -0.5646    0.0000 O   0  0  0  0  0  0  0  0  0  0  0  0
    1.9430    0.2559    0.0000 O   0  0  0  0  0  0  0  0  0  0  0  0
    0.7044   -0.7471    0.0000 C   0  0  0  0  0  0  0  0  0  0  0  0
    1.0399   -1.5008    0.0000 C   0  0  0  0  0  0  0  0  0  0  0  0
    0.5550   -2.1683    0.0000 C   0  0  0  0  0  0  0  0  0  0  0  0
    0.8906   -2.9219    0.0000 F   0  0  0  0  0  0  0  0  0  0  0  0
   -0.2655   -2.0820    0.0000 C   0  0  0  0  0  0  0  0  0  0  0  0
   -0.6010   -1.3283    0.0000 C   0  0  0  0  0  0  0  0  0  0  0  0
   -0.1161   -0.6609    0.0000 C   0  0  0  0  0  0  0  0  0  0  0  0
   -0.6010    0.0065    0.0000 C   0  0  0  0  0  0  0  0  0  0  0  0
   -0.3461    0.7912    0.0000 C   0  0  0  0  0  0  0  0  0  0  0  0
    0.4609    0.9627    0.0000 C   0  0  0  0  0  0  0  0  0  0  0  0
    1.0129    0.3496    0.0000 C   0  0  0  0  0  0  0  0  0  0  0  0
    1.8199    0.5211    0.0000 C   0  0  0  0  0  0  0  0  0  0  0  0
    2.0748    1.3057    0.0000 C   0  0  0  0  0  0  0  0  0  0  0  0
    2.8818    1.4773    0.0000 Cl  0  0  0  0  0  0  0  0  0  0  0  0
    1.5228    1.9188    0.0000 C   0  0  0  0  0  0  0  0  0  0  0  0
    0.7158    1.7473    0.0000 C   0  0  0  0  0  0  0  0  0  0  0  0
   -1.3857   -0.2484    0.0000 C   0  0  0  0  0  0  0  0  0  0  0  0
   -2.1703    0.0065    0.0000 C   0  0  0  0  0  0  0  0  0  0  0  0
   -2.4252    0.7912    0.0000 C   0  0  0  0  0  0  0  0  0  0  0  0
   -1.8732    1.4042    0.0000 C   0  0  0  0  0  0  0  0  0  0  0  0
   -1.0662    1.2327    0.0000 O   0  0  0  0  0  0  0  0  0  0  0  0
   -2.1281    2.1889    0.0000 O   0  0  0  0  0  0  0  0  0  0  0  0
   -2.6552   -0.6609    0.0000 C   0  0  0  0  0  0  0  0  0  0  0  0
   -2.1703   -1.3283    0.0000 C   0  0  0  0  0  0  0  0  0  0  0  0
   -1.3857   -1.0734    0.0000 N   0  0  0  0  0  0  0  0  0  0  0  0
  1  2  1  0  0  0  0
  2  3  2  0  0  0  0
  2  4  2  0  0  0  0
  2  5  1  0  0  0  0
  5  6  1  0  0  0  0
  6  7  2  0  0  0  0
  7  8  1  0  0  0  0
  7  9  1  0  0  0  0
  9 10  2  0  0  0  0
 10 11  1  0  0  0  0
  5 11  2  0  0  0  0
 11 12  1  0  0  0  0
 12 13  1  0  0  0  0
 13 14  1  0  0  0  0
 14 15  1  0  0  0  0
 15 16  2  0  0  0  0
 16 17  1  0  0  0  0
 17 18  1  0  0  0  0
 17 19  2  0  0  0  0
 19 20  1  0  0  0  0
 14 20  2  0  0  0  0
 12 21  2  0  0  0  0
 21 22  1  0  0  0  0
 22 23  1  0  0  0  0
 23 24  1  0  0  0  0
 24 25  2  0  0  0  0
 24 26  1  0  0  0  0
 22 27  1  0  0  0  0
 27 28  1  0  0  0  0
 28 29  1  0  0  0  0
 10 29  1  0  0  0  0
 21 29  1  0  0  0  0
M  END
>  <Name>
CHEMBL261501

>  <Target_Uniprot>
P21731

>  <CHEMBL Canonical SMILES>
CS(=O)(=O)c1cc(F)cc2c1c(Cc3ccc(Cl)cc3)c4C(CC(=O)O)CCn24

>  <PubMed ID>
18359630

$$$$

  Marvin  08031817322D          

 30 33  0  0  0  0            999 V2000
    2.8432   -4.0519    0.0000 C   0  0  0  0  0  0  0  0  0  0  0  0
    2.5076   -3.2982    0.0000 C   0  0  0  0  0  0  0  0  0  0  0  0
    2.9201   -2.5837    0.0000 C   0  0  0  0  0  0  0  0  0  0  0  0
    3.7406   -2.4975    0.0000 O   0  0  0  0  0  0  0  0  0  0  0  0
    2.3681   -1.9706    0.0000 C   0  0  0  0  0  0  0  0  0  0  0  0
    1.6144   -2.3062    0.0000 C   0  0  0  0  0  0  0  0  0  0  0  0
    0.9000   -1.8937    0.0000 C   0  0  0  0  0  0  0  0  0  0  0  0
    0.9000   -1.0687    0.0000 C   0  0  0  0  0  0  0  0  0  0  0  0
    1.6144   -0.6562    0.0000 C   0  0  0  0  0  0  0  0  0  0  0  0
    1.6144    0.1688    0.0000 C   0  0  0  0  0  0  0  0  0  0  0  0
    0.9000    0.5813    0.0000 C   0  0  0  0  0  0  0  0  0  0  0  0
    0.1855    0.1688    0.0000 C   0  0  0  0  0  0  0  0  0  0  0  0
   -0.5290    0.5813    0.0000 C   0  0  0  0  0  0  0  0  0  0  0  0
   -1.2435    0.1688    0.0000 C   0  0  0  0  0  0  0  0  0  0  0  0
   -1.2435   -0.6562    0.0000 C   0  0  0  0  0  0  0  0  0  0  0  0
   -0.5290   -1.0687    0.0000 C   0  0  0  0  0  0  0  0  0  0  0  0
    0.1855   -0.6562    0.0000 C   0  0  0  0  0  0  0  0  0  0  0  0
   -1.9579    0.5813    0.0000 N   0  0  0  0  0  0  0  0  0  0  0  0
   -1.9579    1.4063    0.0000 S   0  0  0  0  0  0  0  0  0  0  0  0
   -2.7829    1.4063    0.0000 O   0  0  0  0  0  0  0  0  0  0  0  0
   -1.1329    1.4063    0.0000 O   0  0  0  0  0  0  0  0  0  0  0  0
   -1.9579    2.2313    0.0000 C   0  0  0  0  0  0  0  0  0  0  0  0
   -1.2435    2.6438    0.0000 C   0  0  0  0  0  0  0  0  0  0  0  0
   -1.2435    3.4688    0.0000 C   0  0  0  0  0  0  0  0  0  0  0  0
   -1.9579    3.8813    0.0000 C   0  0  0  0  0  0  0  0  0  0  0  0
   -1.9579    4.7063    0.0000 Cl  0  0  0  0  0  0  0  0  0  0  0  0
   -2.6724    3.4688    0.0000 C   0  0  0  0  0  0  0  0  0  0  0  0
   -2.6724    2.6438    0.0000 C   0  0  0  0  0  0  0  0  0  0  0  0
    1.7007   -3.1267    0.0000 C   0  0  0  0  0  0  0  0  0  0  0  0
    1.0876   -3.6787    0.0000 O   0  0  0  0  0  0  0  0  0  0  0  0
  1  2  1  0  0  0  0
  2  3  2  0  0  0  0
  3  4  1  0  0  0  0
  3  5  1  0  0  0  0
  5  6  1  0  0  0  0
  6  7  1  0  0  0  0
  7  8  1  0  0  0  0
  8  9  1  0  0  0  0
  9 10  2  0  0  0  0
 10 11  1  0  0  0  0
 11 12  2  0  0  0  0
 12 13  1  0  0  0  0
 13 14  1  0  0  0  0
 14 15  1  0  0  0  0
 15 16  1  0  0  0  0
 16 17  1  0  0  0  0
  8 17  2  0  0  0  0
 12 17  1  0  0  0  0
 14 18  1  0  0  0  0
 18 19  1  0  0  0  0
 19 20  2  0  0  0  0
 19 21  2  0  0  0  0
 19 22  1  0  0  0  0
 22 23  1  0  0  0  0
 23 24  2  0  0  0  0
 24 25  1  0  0  0  0
 25 26  1  0  0  0  0
 25 27  2  0  0  0  0
 27 28  1  0  0  0  0
 22 28  2  0  0  0  0
  6 29  1  0  0  0  0
  2 29  1  0  0  0  0
 29 30  2  0  0  0  0
M  END
>  <Name>
CHEMBL3354613

>  <Target_Uniprot>
P21731

>  <CHEMBL Canonical SMILES>
CC1=C(O)CC(Cc2cccc3CC(CCc23)NS(=O)(=O)c4ccc(Cl)cc4)C1=O

>  <PubMed ID>
25221659

$$$$

  Marvin  08031817322D          

 26 29  0  0  1  0            999 V2000
   -2.2270   -0.7438    0.0000 O   0  0  0  0  0  0  0  0  0  0  0  0
   -1.5125   -1.1563    0.0000 C   0  0  0  0  0  0  0  0  0  0  0  0
   -1.5125   -1.9813    0.0000 O   0  0  0  0  0  0  0  0  0  0  0  0
   -0.7980   -0.7438    0.0000 C   0  0  0  0  0  0  0  0  0  0  0  0
   -0.7980    0.0812    0.0000 C   0  0  2  0  0  0  0  0  0  0  0  0
   -1.5125    0.4937    0.0000 C   0  0  0  0  0  0  0  0  0  0  0  0
   -1.5125    1.3187    0.0000 C   0  0  0  0  0  0  0  0  0  0  0  0
   -0.7980    1.7312    0.0000 C   0  0  0  0  0  0  0  0  0  0  0  0
   -0.0836    1.3187    0.0000 C   0  0  0  0  0  0  0  0  0  0  0  0
   -0.0836    0.4937    0.0000 C   0  0  0  0  0  0  0  0  0  0  0  0
    0.7011    0.2387    0.0000 N   0  0  0  0  0  0  0  0  0  0  0  0
    0.9560   -0.5459    0.0000 C   0  0  0  0  0  0  0  0  0  0  0  0
    0.4040   -1.1590    0.0000 C   0  0  0  0  0  0  0  0  0  0  0  0
   -0.4030   -0.9875    0.0000 C   0  0  0  0  0  0  0  0  0  0  0  0
   -0.9550   -1.6006    0.0000 C   0  0  0  0  0  0  0  0  0  0  0  0
   -0.7001   -2.3852    0.0000 C   0  0  0  0  0  0  0  0  0  0  0  0
   -1.2521   -2.9983    0.0000 Cl  0  0  0  0  0  0  0  0  0  0  0  0
    0.1069   -2.5567    0.0000 C   0  0  0  0  0  0  0  0  0  0  0  0
    0.6589   -1.9436    0.0000 C   0  0  0  0  0  0  0  0  0  0  0  0
    1.1860    0.9062    0.0000 C   0  0  0  0  0  0  0  0  0  0  0  0
    2.0065    0.9924    0.0000 C   0  0  0  0  0  0  0  0  0  0  0  0
    2.3420    1.7461    0.0000 C   0  0  0  0  0  0  0  0  0  0  0  0
    1.8571    2.4135    0.0000 C   0  0  0  0  0  0  0  0  0  0  0  0
    2.1926    3.1672    0.0000 F   0  0  0  0  0  0  0  0  0  0  0  0
    1.0366    2.3273    0.0000 C   0  0  0  0  0  0  0  0  0  0  0  0
    0.7011    1.5736    0.0000 C   0  0  0  0  0  0  0  0  0  0  0  0
  1  2  1  0  0  0  0
  2  3  2  0  0  0  0
  2  4  1  0  0  0  0
  5  4  1  6  0  0  0
  5  6  1  0  0  0  0
  6  7  1  0  0  0  0
  7  8  1  0  0  0  0
  8  9  1  0  0  0  0
  9 10  2  0  0  0  0
  5 10  1  0  0  0  0
 10 11  1  0  0  0  0
 11 12  1  0  0  0  0
 12 13  1  0  0  0  0
 13 14  1  0  0  0  0
 14 15  2  0  0  0  0
 15 16  1  0  0  0  0
 16 17  1  0  0  0  0
 16 18  2  0  0  0  0
 18 19  1  0  0  0  0
 13 19  2  0  0  0  0
 11 20  1  0  0  0  0
 20 21  1  0  0  0  0
 21 22  2  0  0  0  0
 22 23  1  0  0  0  0
 23 24  1  0  0  0  0
 23 25  2  0  0  0  0
 25 26  1  0  0  0  0
  9 26  1  0  0  0  0
 20 26  2  0  0  0  0
M  END
>  <Name>
CHEMBL2079673

>  <Target_Uniprot>
P21731

>  <CHEMBL Canonical SMILES>
OC(=O)C[C@@H]1CCCc2c1n(Cc3ccc(Cl)cc3)c4ccc(F)cc24

>  <PubMed ID>
1826745

$$$$

  Marvin  08031817322D          

 30 31  0  0  0  0            999 V2000
    2.5559   -2.5030    0.0000 C   0  0  0  0  0  0  0  0  0  0  0  0
    2.1434   -3.2175    0.0000 C   0  0  0  0  0  0  0  0  0  0  0  0
    1.7309   -3.9320    0.0000 C   0  0  0  0  0  0  0  0  0  0  0  0
    2.8579   -3.6300    0.0000 C   0  0  0  0  0  0  0  0  0  0  0  0
    1.4289   -2.8050    0.0000 N   0  0  0  0  0  0  0  0  0  0  0  0
    1.4289   -1.9800    0.0000 C   0  0  0  0  0  0  0  0  0  0  0  0
    2.1434   -1.5675    0.0000 N   0  0  0  0  0  0  0  0  0  0  0  0
    2.8579   -1.9800    0.0000 C   0  0  0  0  0  0  0  0  0  0  0  0
    3.5724   -2.3925    0.0000 N   0  0  0  0  0  0  0  0  0  0  0  0
    0.7145   -1.5675    0.0000 N   0  0  0  0  0  0  0  0  0  0  0  0
    0.7145   -0.7425    0.0000 C   0  0  0  0  0  0  0  0  0  0  0  0
    1.4289   -0.3300    0.0000 C   0  0  0  0  0  0  0  0  0  0  0  0
    1.4289    0.4950    0.0000 C   0  0  0  0  0  0  0  0  0  0  0  0
    0.7145    0.9075    0.0000 C   0  0  0  0  0  0  0  0  0  0  0  0
    0.0000    0.4950    0.0000 C   0  0  0  0  0  0  0  0  0  0  0  0
    0.0000   -0.3300    0.0000 C   0  0  0  0  0  0  0  0  0  0  0  0
   -0.7145    0.9075    0.0000 C   0  0  0  0  0  0  0  0  0  0  0  0
   -0.7145    1.7325    0.0000 C   0  0  0  0  0  0  0  0  0  0  0  0
   -1.4289    2.1450    0.0000 C   0  0  0  0  0  0  0  0  0  0  0  0
   -1.4289    2.9700    0.0000 C   0  0  0  0  0  0  0  0  0  0  0  0
   -2.1434    3.3825    0.0000 C   0  0  0  0  0  0  0  0  0  0  0  0
   -2.1434    4.2075    0.0000 C   0  0  0  0  0  0  0  0  0  0  0  0
   -1.4289    4.6200    0.0000 O   0  0  0  0  0  0  0  0  0  0  0  0
   -2.8579    4.6200    0.0000 O   0  0  0  0  0  0  0  0  0  0  0  0
   -1.4289    0.4950    0.0000 C   0  0  0  0  0  0  0  0  0  0  0  0
   -2.1434    0.9075    0.0000 C   0  0  0  0  0  0  0  0  0  0  0  0
   -2.8579    0.4950    0.0000 C   0  0  0  0  0  0  0  0  0  0  0  0
   -2.8579   -0.3300    0.0000 C   0  0  0  0  0  0  0  0  0  0  0  0
   -2.1434   -0.7425    0.0000 N   0  0  0  0  0  0  0  0  0  0  0  0
   -1.4289   -0.3300    0.0000 C   0  0  0  0  0  0  0  0  0  0  0  0
  1  2  1  0  0  0  0
  2  3  1  0  0  0  0
  2  4  1  0  0  0  0
  2  5  1  0  0  0  0
  5  6  2  0  0  0  0
  6  7  1  0  0  0  0
  7  8  1  0  0  0  0
  8  9  3  0  0  0  0
  6 10  1  0  0  0  0
 10 11  1  0  0  0  0
 11 12  1  0  0  0  0
 12 13  2  0  0  0  0
 13 14  1  0  0  0  0
 14 15  2  0  0  0  0
 15 16  1  0  0  0  0
 11 16  2  0  0  0  0
 15 17  1  0  0  0  0
 17 18  2  0  0  0  0
 18 19  1  0  0  0  0
 19 20  1  0  0  0  0
 20 21  1  0  0  0  0
 21 22  1  0  0  0  0
 22 23  2  0  0  0  0
 22 24  1  0  0  0  0
 17 25  1  0  0  0  0
 25 26  1  0  0  0  0
 26 27  2  0  0  0  0
 27 28  1  0  0  0  0
 28 29  2  0  0  0  0
 29 30  1  0  0  0  0
 25 30  2  0  0  0  0
M  END
>  <Name>
CHEMBL7718

>  <Target_Uniprot>
P21731

>  <CHEMBL Canonical SMILES>
CC(C)(C)\N=C(/NC#N)\Nc1cccc(c1)\C(=C\CCCC(=O)O)\c2cccnc2

>  <PubMed ID>
11327579

$$$$

  Marvin  08031817322D          

 26 28  0  0  0  0            999 V2000
    0.8626    1.7650    0.0000 C   0  0  0  0  0  0  0  0  0  0  0  0
    1.5771    1.3525    0.0000 C   0  0  0  0  0  0  0  0  0  0  0  0
    2.2915    0.9400    0.0000 C   0  0  0  0  0  0  0  0  0  0  0  0
    1.9896    2.0669    0.0000 C   0  0  0  0  0  0  0  0  0  0  0  0
    2.8146    2.0669    0.0000 C   0  0  0  0  0  0  0  0  0  0  0  0
    3.2271    1.3525    0.0000 O   0  0  0  0  0  0  0  0  0  0  0  0
    3.2271    2.7814    0.0000 O   0  0  0  0  0  0  0  0  0  0  0  0
    1.1646    0.6380    0.0000 C   0  0  0  0  0  0  0  0  0  0  0  0
    0.3396    0.6380    0.0000 C   0  0  0  0  0  0  0  0  0  0  0  0
   -0.1453    1.3054    0.0000 N   0  0  0  0  0  0  0  0  0  0  0  0
   -0.9300    1.0505    0.0000 C   0  0  0  0  0  0  0  0  0  0  0  0
   -1.6444    1.4630    0.0000 C   0  0  0  0  0  0  0  0  0  0  0  0
   -2.3589    1.0505    0.0000 C   0  0  0  0  0  0  0  0  0  0  0  0
   -2.3589    0.2255    0.0000 C   0  0  0  0  0  0  0  0  0  0  0  0
   -1.6444   -0.1870    0.0000 C   0  0  0  0  0  0  0  0  0  0  0  0
   -0.9300    0.2255    0.0000 C   0  0  0  0  0  0  0  0  0  0  0  0
   -0.1453   -0.0294    0.0000 N   0  0  0  0  0  0  0  0  0  0  0  0
    0.1096   -0.8141    0.0000 C   0  0  0  0  0  0  0  0  0  0  0  0
   -0.4424   -1.4272    0.0000 C   0  0  0  0  0  0  0  0  0  0  0  0
   -1.2494   -1.2556    0.0000 C   0  0  0  0  0  0  0  0  0  0  0  0
   -1.8014   -1.8687    0.0000 C   0  0  0  0  0  0  0  0  0  0  0  0
   -1.5465   -2.6533    0.0000 C   0  0  0  0  0  0  0  0  0  0  0  0
   -2.0985   -3.2664    0.0000 Br  0  0  0  0  0  0  0  0  0  0  0  0
   -0.7395   -2.8249    0.0000 C   0  0  0  0  0  0  0  0  0  0  0  0
   -0.1875   -2.2118    0.0000 C   0  0  0  0  0  0  0  0  0  0  0  0
    0.6195   -2.3833    0.0000 F   0  0  0  0  0  0  0  0  0  0  0  0
  1  2  1  0  0  0  0
  2  3  1  0  0  0  0
  2  4  1  0  0  0  0
  4  5  1  0  0  0  0
  5  6  2  0  0  0  0
  5  7  1  0  0  0  0
  2  8  1  0  0  0  0
  8  9  1  0  0  0  0
  9 10  2  0  0  0  0
 10 11  1  0  0  0  0
 11 12  1  0  0  0  0
 12 13  2  0  0  0  0
 13 14  1  0  0  0  0
 14 15  2  0  0  0  0
 15 16  1  0  0  0  0
 11 16  2  0  0  0  0
 16 17  1  0  0  0  0
  9 17  1  0  0  0  0
 17 18  1  0  0  0  0
 18 19  1  0  0  0  0
 19 20  1  0  0  0  0
 20 21  2  0  0  0  0
 21 22  1  0  0  0  0
 22 23  1  0  0  0  0
 22 24  2  0  0  0  0
 24 25  1  0  0  0  0
 19 25  2  0  0  0  0
 25 26  1  0  0  0  0
M  END
>  <Name>
CHEMBL274287

>  <Target_Uniprot>
P21731

>  <CHEMBL Canonical SMILES>
CC(C)(CC(=O)O)Cc1nc2ccccc2n1Cc3ccc(Br)cc3F

>  <PubMed ID>
8487256

$$$$

  Marvin  08031817322D          

 33 36  0  0  0  0            999 V2000
   -3.7808   -4.6988    0.0000 C   0  0  0  0  0  0  0  0  0  0  0  0
   -3.1336   -4.1863    0.0000 C   0  0  0  0  0  0  0  0  0  0  0  0
   -3.0653   -3.3630    0.0000 C   0  0  0  0  0  0  0  0  0  0  0  0
   -2.4840   -2.7758    0.0000 C   0  0  0  0  0  0  0  0  0  0  0  0
   -2.4308   -1.9526    0.0000 C   0  0  0  0  0  0  0  0  0  0  0  0
   -1.7628   -1.4742    0.0000 N   0  0  0  0  0  0  0  0  0  0  0  0
   -1.0496   -1.8774    0.0000 C   0  0  0  0  0  0  0  0  0  0  0  0
   -2.0309   -0.7025    0.0000 C   0  0  0  0  0  0  0  0  0  0  0  0
   -2.7600   -0.3280    0.0000 O   0  0  0  0  0  0  0  0  0  0  0  0
   -1.3640   -0.2036    0.0000 C   0  0  0  0  0  0  0  0  0  0  0  0
   -0.5805   -0.4633    0.0000 C   0  0  0  0  0  0  0  0  0  0  0  0
   -0.0951    0.2020    0.0000 O   0  0  0  0  0  0  0  0  0  0  0  0
   -0.5543    0.8837    0.0000 C   0  0  0  0  0  0  0  0  0  0  0  0
   -1.3524    0.6206    0.0000 N   0  0  0  0  0  0  0  0  0  0  0  0
   -0.1593    1.7132    0.0000 C   0  0  0  0  0  0  0  0  0  0  0  0
    0.6303    1.9119    0.0000 C   0  0  0  0  0  0  0  0  0  0  0  0
    1.1998    1.3385    0.0000 C   0  0  0  0  0  0  0  0  0  0  0  0
    1.2102    0.5470    0.0000 C   0  0  0  0  0  0  0  0  0  0  0  0
    0.4554    0.2540    0.0000 C   0  0  0  0  0  0  0  0  0  0  0  0
    0.3344   -0.5665    0.0000 C   0  0  0  0  0  0  0  0  0  0  0  0
    0.9841   -1.0716    0.0000 C   0  0  0  0  0  0  0  0  0  0  0  0
    1.7502   -0.7599    0.0000 C   0  0  0  0  0  0  0  0  0  0  0  0
    1.8626    0.0575    0.0000 C   0  0  0  0  0  0  0  0  0  0  0  0
    2.5944    0.4177    0.0000 C   0  0  0  0  0  0  0  0  0  0  0  0
    3.3134    0.0374    0.0000 C   0  0  0  0  0  0  0  0  0  0  0  0
    4.0694    0.3437    0.0000 C   0  0  0  0  0  0  0  0  0  0  0  0
    4.0651    1.1670    0.0000 O   0  0  0  0  0  0  0  0  0  0  0  0
    4.6820   -0.2059    0.0000 O   0  0  0  0  0  0  0  0  0  0  0  0
    0.6649    2.8129    0.0000 C   0  0  0  0  0  0  0  0  0  0  0  0
    0.0150    3.5558    0.0000 C   0  0  0  0  0  0  0  0  0  0  0  0
   -0.8065    3.2192    0.0000 C   0  0  0  0  0  0  0  0  0  0  0  0
   -0.5486    2.4457    0.0000 C   0  0  0  0  0  0  0  0  0  0  0  0
    0.1276    3.1012    0.0000 O   0  0  0  0  0  0  0  0  0  0  0  0
  1  2  1  0  0  0  0
  2  3  1  0  0  0  0
  3  4  1  0  0  0  0
  4  5  1  0  0  0  0
  5  6  1  0  0  0  0
  6  7  1  0  0  0  0
  6  8  1  0  0  0  0
  8  9  2  0  0  0  0
  8 10  1  0  0  0  0
 10 11  2  0  0  0  0
 11 12  1  0  0  0  0
 12 13  1  0  0  0  0
 13 14  2  0  0  0  0
 10 14  1  0  0  0  0
 13 15  1  0  0  0  0
 15 16  1  0  0  0  0
 16 17  1  0  0  0  0
 17 18  1  0  0  0  0
 18 19  1  0  0  0  0
 19 20  2  0  0  0  0
 20 21  1  0  0  0  0
 21 22  2  0  0  0  0
 22 23  1  0  0  0  0
 18 23  2  0  0  0  0
 23 24  1  0  0  0  0
 24 25  1  0  0  0  0
 25 26  1  0  0  0  0
 26 27  2  0  0  0  0
 26 28  1  0  0  0  0
 16 29  1  0  0  0  0
 29 30  1  0  0  0  0
 30 31  1  0  0  0  0
 31 32  1  0  0  0  0
 15 32  1  0  0  0  0
 32 33  1  0  0  0  0
 29 33  1  0  0  0  0
M  END
>  <Name>
CHEMBL418583

>  <Target_Uniprot>
P21731

>  <CHEMBL Canonical SMILES>
CCCCCN(C)C(=O)c1coc(n1)C2C(Cc3ccccc3CCC(=O)O)C4CCC2O4

>  <PubMed ID>
8496908

$$$$

  Marvin  08031817322D          

 32 35  0  0  0  0            999 V2000
   -1.9045    4.1944    0.0000 C   0  0  0  0  0  0  0  0  0  0  0  0
   -1.7209    3.3901    0.0000 O   0  0  0  0  0  0  0  0  0  0  0  0
   -2.3256    2.8289    0.0000 C   0  0  0  0  0  0  0  0  0  0  0  0
   -3.1140    3.0721    0.0000 C   0  0  0  0  0  0  0  0  0  0  0  0
   -3.7188    2.5110    0.0000 C   0  0  0  0  0  0  0  0  0  0  0  0
   -3.5352    1.7066    0.0000 C   0  0  0  0  0  0  0  0  0  0  0  0
   -2.7468    1.4635    0.0000 C   0  0  0  0  0  0  0  0  0  0  0  0
   -2.1421    2.0246    0.0000 C   0  0  0  0  0  0  0  0  0  0  0  0
   -1.3537    1.7814    0.0000 C   0  0  0  0  0  0  0  0  0  0  0  0
   -0.7490    2.3426    0.0000 O   0  0  0  0  0  0  0  0  0  0  0  0
   -1.1701    0.9771    0.0000 N   0  0  0  0  0  0  0  0  0  0  0  0
   -0.3818    0.7339    0.0000 C   0  0  0  0  0  0  0  0  0  0  0  0
   -0.1982   -0.0704    0.0000 C   0  0  0  0  0  0  0  0  0  0  0  0
    0.5901   -0.3135    0.0000 S   0  0  0  0  0  0  0  0  0  0  0  0
    0.7737   -1.1179    0.0000 C   0  0  0  0  0  0  0  0  0  0  0  0
    0.1287   -1.6322    0.0000 C   0  0  0  0  0  0  0  0  0  0  0  0
   -0.5858   -1.2197    0.0000 C   0  0  0  0  0  0  0  0  0  0  0  0
   -1.3002   -1.6322    0.0000 C   0  0  0  0  0  0  0  0  0  0  0  0
   -1.3002   -2.4572    0.0000 C   0  0  0  0  0  0  0  0  0  0  0  0
   -0.5858   -2.8697    0.0000 C   0  0  0  0  0  0  0  0  0  0  0  0
    0.1287   -2.4572    0.0000 C   0  0  0  0  0  0  0  0  0  0  0  0
    0.7737   -2.9716    0.0000 C   0  0  0  0  0  0  0  0  0  0  0  0
    1.5780   -2.7880    0.0000 O   0  0  0  0  0  0  0  0  0  0  0  0
    1.9360   -2.0447    0.0000 C   0  0  0  0  0  0  0  0  0  0  0  0
    2.7587   -2.1064    0.0000 C   0  0  0  0  0  0  0  0  0  0  0  0
    3.2234   -1.4247    0.0000 C   0  0  0  0  0  0  0  0  0  0  0  0
    2.8655   -0.6814    0.0000 C   0  0  0  0  0  0  0  0  0  0  0  0
    2.0428   -0.6198    0.0000 C   0  0  0  0  0  0  0  0  0  0  0  0
    1.5780   -1.3014    0.0000 C   0  0  0  0  0  0  0  0  0  0  0  0
    3.3302    0.0002    0.0000 C   0  0  0  0  0  0  0  0  0  0  0  0
    2.9722    0.7435    0.0000 O   0  0  0  0  0  0  0  0  0  0  0  0
    4.1529   -0.0615    0.0000 O   0  0  0  0  0  0  0  0  0  0  0  0
  1  2  1  0  0  0  0
  2  3  1  0  0  0  0
  3  4  1  0  0  0  0
  4  5  2  0  0  0  0
  5  6  1  0  0  0  0
  6  7  2  0  0  0  0
  7  8  1  0  0  0  0
  3  8  2  0  0  0  0
  8  9  1  0  0  0  0
  9 10  2  0  0  0  0
  9 11  1  0  0  0  0
 11 12  1  0  0  0  0
 12 13  1  0  0  0  0
 13 14  1  0  0  0  0
 14 15  1  0  0  0  0
 15 16  1  0  0  0  0
 16 17  1  0  0  0  0
 17 18  2  0  0  0  0
 18 19  1  0  0  0  0
 19 20  2  0  0  0  0
 20 21  1  0  0  0  0
 16 21  2  0  0  0  0
 21 22  1  0  0  0  0
 22 23  1  0  0  0  0
 23 24  1  0  0  0  0
 24 25  1  0  0  0  0
 25 26  2  0  0  0  0
 26 27  1  0  0  0  0
 27 28  2  0  0  0  0
 28 29  1  0  0  0  0
 15 29  1  0  0  0  0
 24 29  2  0  0  0  0
 27 30  1  0  0  0  0
 30 31  2  0  0  0  0
 30 32  1  0  0  0  0
M  END
>  <Name>
CHEMBL422253

>  <Target_Uniprot>
P21731

>  <CHEMBL Canonical SMILES>
COc1ccccc1C(=O)NCCSC2c3ccccc3COc4ccc(cc24)C(=O)O

>  <PubMed ID>
1388207

$$$$

  Marvin  08031817322D          

 35 38  0  0  0  0            999 V2000
    0.3270   -1.8093    0.0000 O   0  0  0  0  0  0  0  0  0  0  0  0
    0.8790   -2.4224    0.0000 C   0  0  0  0  0  0  0  0  0  0  0  0
    0.6241   -3.2070    0.0000 O   0  0  0  0  0  0  0  0  0  0  0  0
    1.6860   -2.2509    0.0000 C   0  0  0  0  0  0  0  0  0  0  0  0
    1.9410   -1.4662    0.0000 C   0  0  0  0  0  0  0  0  0  0  0  0
    2.7479   -1.2947    0.0000 C   0  0  0  0  0  0  0  0  0  0  0  0
    3.3000   -1.9078    0.0000 C   0  0  0  0  0  0  0  0  0  0  0  0
    4.1069   -1.7363    0.0000 C   0  0  0  0  0  0  0  0  0  0  0  0
    4.3619   -0.9517    0.0000 C   0  0  0  0  0  0  0  0  0  0  0  0
    3.8098   -0.3386    0.0000 C   0  0  0  0  0  0  0  0  0  0  0  0
    3.0029   -0.5101    0.0000 C   0  0  0  0  0  0  0  0  0  0  0  0
    2.4508    0.1030    0.0000 C   0  0  0  0  0  0  0  0  0  0  0  0
    2.7058    0.8876    0.0000 N   0  0  0  0  0  0  0  0  0  0  0  0
    3.4904    1.1426    0.0000 C   0  0  0  0  0  0  0  0  0  0  0  0
    3.4904    1.9676    0.0000 C   0  0  0  0  0  0  0  0  0  0  0  0
    2.7058    2.2225    0.0000 C   0  0  0  0  0  0  0  0  0  0  0  0
    2.2209    1.5551    0.0000 C   0  0  0  0  0  0  0  0  0  0  0  0
    1.3959    1.5551    0.0000 C   0  0  0  0  0  0  0  0  0  0  0  0
    0.9109    2.2225    0.0000 O   0  0  0  0  0  0  0  0  0  0  0  0
    0.1263    1.9676    0.0000 C   0  0  0  0  0  0  0  0  0  0  0  0
    0.1263    1.1426    0.0000 C   0  0  0  0  0  0  0  0  0  0  0  0
    0.9109    0.8876    0.0000 N   0  0  0  0  0  0  0  0  0  0  0  0
   -0.5411    0.6576    0.0000 C   0  0  0  0  0  0  0  0  0  0  0  0
   -0.4549   -0.1628    0.0000 O   0  0  0  0  0  0  0  0  0  0  0  0
   -1.2948    0.9932    0.0000 N   0  0  0  0  0  0  0  0  0  0  0  0
   -1.9622    0.5083    0.0000 C   0  0  0  0  0  0  0  0  0  0  0  0
   -2.7159    0.8438    0.0000 C   0  0  0  0  0  0  0  0  0  0  0  0
   -3.3834    0.3589    0.0000 C   0  0  0  0  0  0  0  0  0  0  0  0
   -4.1370    0.6945    0.0000 C   0  0  0  0  0  0  0  0  0  0  0  0
   -4.8045    0.2095    0.0000 C   0  0  0  0  0  0  0  0  0  0  0  0
   -5.5581    0.5451    0.0000 C   0  0  0  0  0  0  0  0  0  0  0  0
   -6.2256    0.0602    0.0000 C   0  0  0  0  0  0  0  0  0  0  0  0
   -6.1394   -0.7603    0.0000 C   0  0  0  0  0  0  0  0  0  0  0  0
   -5.3857   -1.0959    0.0000 C   0  0  0  0  0  0  0  0  0  0  0  0
   -4.7182   -0.6109    0.0000 C   0  0  0  0  0  0  0  0  0  0  0  0
  1  2  1  0  0  0  0
  2  3  2  0  0  0  0
  2  4  1  0  0  0  0
  4  5  1  0  0  0  0
  5  6  1  0  0  0  0
  6  7  1  0  0  0  0
  7  8  2  0  0  0  0
  8  9  1  0  0  0  0
  9 10  2  0  0  0  0
 10 11  1  0  0  0  0
  6 11  2  0  0  0  0
 11 12  1  0  0  0  0
 12 13  1  0  0  0  0
 13 14  1  0  0  0  0
 14 15  1  0  0  0  0
 15 16  1  0  0  0  0
 16 17  1  0  0  0  0
 13 17  1  0  0  0  0
 17 18  1  0  0  0  0
 18 19  1  0  0  0  0
 19 20  1  0  0  0  0
 20 21  2  0  0  0  0
 21 22  1  0  0  0  0
 18 22  2  0  0  0  0
 21 23  1  0  0  0  0
 23 24  2  0  0  0  0
 23 25  1  0  0  0  0
 25 26  1  0  0  0  0
 26 27  1  0  0  0  0
 27 28  1  0  0  0  0
 28 29  1  0  0  0  0
 29 30  1  0  0  0  0
 30 31  1  0  0  0  0
 31 32  1  0  0  0  0
 32 33  1  0  0  0  0
 33 34  1  0  0  0  0
 34 35  1  0  0  0  0
 30 35  1  0  0  0  0
M  END
>  <Name>
CHEMBL23414

>  <Target_Uniprot>
P21731

>  <CHEMBL Canonical SMILES>
OC(=O)CCc1ccccc1CN2CCCC2c3occ(n3)C(=O)NCCCCC4CCCCC4

$$$$

  Marvin  08031817322D          

 28 31  0  0  1  0            999 V2000
    0.8975    1.6773    0.0000 O   0  0  0  0  0  0  0  0  0  0  0  0
    1.7045    1.8489    0.0000 C   0  0  0  0  0  0  0  0  0  0  0  0
    1.9594    2.6335    0.0000 O   0  0  0  0  0  0  0  0  0  0  0  0
    2.2565    1.2358    0.0000 C   0  0  0  0  0  0  0  0  0  0  0  0
    2.0016    0.4512    0.0000 C   0  0  0  0  0  0  0  0  0  0  0  0
    1.2170    0.1962    0.0000 C   0  0  0  0  0  0  0  0  0  0  0  0
    0.5025    0.6087    0.0000 C   0  0  0  0  0  0  0  0  0  0  0  0
   -0.2120    0.1962    0.0000 C   0  0  0  0  0  0  0  0  0  0  0  0
   -0.2120   -0.6288    0.0000 C   0  0  2  0  0  0  0  0  0  0  0  0
    0.5025   -1.0413    0.0000 C   0  0  0  0  0  0  0  0  0  0  0  0
    1.2170   -0.6288    0.0000 N   0  0  0  0  0  0  0  0  0  0  0  0
    2.0016   -0.8837    0.0000 C   0  0  0  0  0  0  0  0  0  0  0  0
    2.3372   -1.6374    0.0000 C   0  0  0  0  0  0  0  0  0  0  0  0
    3.1576   -1.7236    0.0000 C   0  0  0  0  0  0  0  0  0  0  0  0
    3.6426   -1.0562    0.0000 C   0  0  0  0  0  0  0  0  0  0  0  0
    3.3070   -0.3025    0.0000 C   0  0  0  0  0  0  0  0  0  0  0  0
    2.4865   -0.2163    0.0000 C   0  0  0  0  0  0  0  0  0  0  0  0
   -0.9264   -1.0413    0.0000 N   0  0  0  0  0  0  0  0  0  0  0  0
   -1.6409   -0.6288    0.0000 S   0  0  0  0  0  0  0  0  0  0  0  0
   -2.0534   -1.3433    0.0000 O   0  0  0  0  0  0  0  0  0  0  0  0
   -1.2284    0.0857    0.0000 O   0  0  0  0  0  0  0  0  0  0  0  0
   -2.3554   -0.2163    0.0000 C   0  0  0  0  0  0  0  0  0  0  0  0
   -2.3554    0.6087    0.0000 C   0  0  0  0  0  0  0  0  0  0  0  0
   -3.0699    1.0212    0.0000 C   0  0  0  0  0  0  0  0  0  0  0  0
   -3.7843    0.6087    0.0000 C   0  0  0  0  0  0  0  0  0  0  0  0
   -4.4988    1.0212    0.0000 F   0  0  0  0  0  0  0  0  0  0  0  0
   -3.7843   -0.2163    0.0000 C   0  0  0  0  0  0  0  0  0  0  0  0
   -3.0699   -0.6288    0.0000 C   0  0  0  0  0  0  0  0  0  0  0  0
  1  2  1  0  0  0  0
  2  3  2  0  0  0  0
  2  4  1  0  0  0  0
  4  5  1  0  0  0  0
  5  6  2  0  0  0  0
  6  7  1  0  0  0  0
  7  8  1  0  0  0  0
  8  9  1  0  0  0  0
  9 10  1  0  0  0  0
 10 11  1  0  0  0  0
  6 11  1  0  0  0  0
 11 12  1  0  0  0  0
 12 13  1  0  0  0  0
 13 14  2  0  0  0  0
 14 15  1  0  0  0  0
 15 16  2  0  0  0  0
 16 17  1  0  0  0  0
  5 17  1  0  0  0  0
 12 17  2  0  0  0  0
  9 18  1  6  0  0  0
 18 19  1  0  0  0  0
 19 20  2  0  0  0  0
 19 21  2  0  0  0  0
 19 22  1  0  0  0  0
 22 23  1  0  0  0  0
 23 24  2  0  0  0  0
 24 25  1  0  0  0  0
 25 26  1  0  0  0  0
 25 27  2  0  0  0  0
 27 28  1  0  0  0  0
 22 28  2  0  0  0  0
M  END
>  <Name>
CHEMBL1643785

>  <Target_Uniprot>
P21731

>  <CHEMBL Canonical SMILES>
OC(=O)Cc1c2CC[C@H](Cn2c3ccccc13)NS(=O)(=O)c4ccc(F)cc4

>  <PubMed ID>
21106375

$$$$

  Marvin  08031817322D          

 30 33  0  0  0  0            999 V2000
    3.0765    0.1169    0.0000 O   0  0  0  0  0  0  0  0  0  0  0  0
    3.0765    0.9419    0.0000 C   0  0  0  0  0  0  0  0  0  0  0  0
    3.7910    1.3544    0.0000 O   0  0  0  0  0  0  0  0  0  0  0  0
    2.3621    1.3544    0.0000 C   0  0  0  0  0  0  0  0  0  0  0  0
    2.3621    2.1794    0.0000 C   0  0  0  0  0  0  0  0  0  0  0  0
    1.6476    2.5919    0.0000 C   0  0  0  0  0  0  0  0  0  0  0  0
    0.9331    2.1794    0.0000 C   0  0  0  0  0  0  0  0  0  0  0  0
    0.2881    2.6938    0.0000 O   0  0  0  0  0  0  0  0  0  0  0  0
   -0.5162    2.5102    0.0000 C   0  0  0  0  0  0  0  0  0  0  0  0
   -0.8742    1.7669    0.0000 C   0  0  0  0  0  0  0  0  0  0  0  0
   -1.6968    1.8286    0.0000 C   0  0  0  0  0  0  0  0  0  0  0  0
   -2.1616    1.1469    0.0000 C   0  0  0  0  0  0  0  0  0  0  0  0
   -1.8036    0.4036    0.0000 C   0  0  0  0  0  0  0  0  0  0  0  0
   -0.9809    0.3420    0.0000 C   0  0  0  0  0  0  0  0  0  0  0  0
   -0.5162    1.0236    0.0000 C   0  0  0  0  0  0  0  0  0  0  0  0
    0.2881    0.8401    0.0000 C   0  0  0  0  0  0  0  0  0  0  0  0
    0.4717    0.0357    0.0000 C   0  0  0  0  0  0  0  0  0  0  0  0
   -0.1331   -0.5254    0.0000 C   0  0  0  0  0  0  0  0  0  0  0  0
    0.0505   -1.3297    0.0000 N   0  0  0  0  0  0  0  0  0  0  0  0
   -0.5543   -1.8909    0.0000 S   0  0  0  0  0  0  0  0  0  0  0  0
    0.0069   -2.4956    0.0000 O   0  0  0  0  0  0  0  0  0  0  0  0
   -1.1154   -1.2861    0.0000 O   0  0  0  0  0  0  0  0  0  0  0  0
   -1.1590   -2.4520    0.0000 C   0  0  0  0  0  0  0  0  0  0  0  0
   -1.9474   -2.2088    0.0000 C   0  0  0  0  0  0  0  0  0  0  0  0
   -2.5521   -2.7700    0.0000 C   0  0  0  0  0  0  0  0  0  0  0  0
   -2.3686   -3.5743    0.0000 C   0  0  0  0  0  0  0  0  0  0  0  0
   -1.5802   -3.8175    0.0000 C   0  0  0  0  0  0  0  0  0  0  0  0
   -0.9754   -3.2563    0.0000 C   0  0  0  0  0  0  0  0  0  0  0  0
    0.9331    1.3544    0.0000 C   0  0  0  0  0  0  0  0  0  0  0  0
    1.6476    0.9419    0.0000 C   0  0  0  0  0  0  0  0  0  0  0  0
  1  2  1  0  0  0  0
  2  3  2  0  0  0  0
  2  4  1  0  0  0  0
  4  5  1  0  0  0  0
  5  6  2  0  0  0  0
  6  7  1  0  0  0  0
  7  8  1  0  0  0  0
  8  9  1  0  0  0  0
  9 10  1  0  0  0  0
 10 11  1  0  0  0  0
 11 12  2  0  0  0  0
 12 13  1  0  0  0  0
 13 14  2  0  0  0  0
 14 15  1  0  0  0  0
 10 15  2  0  0  0  0
 15 16  1  0  0  0  0
 16 17  2  0  0  0  0
 17 18  1  0  0  0  0
 18 19  1  0  0  0  0
 19 20  1  0  0  0  0
 20 21  2  0  0  0  0
 20 22  2  0  0  0  0
 20 23  1  0  0  0  0
 23 24  1  0  0  0  0
 24 25  2  0  0  0  0
 25 26  1  0  0  0  0
 26 27  2  0  0  0  0
 27 28  1  0  0  0  0
 23 28  2  0  0  0  0
 16 29  1  0  0  0  0
  7 29  2  0  0  0  0
 29 30  1  0  0  0  0
  4 30  2  0  0  0  0
M  END
>  <Name>
CHEMBL113670

>  <Target_Uniprot>
P21731

>  <CHEMBL Canonical SMILES>
OC(=O)c1ccc2OCc3ccccc3\C(=C/CNS(=O)(=O)c4ccccc4)\c2c1

>  <PubMed ID>
1388208

$$$$

  Marvin  08031817322D          

 25 27  0  0  0  0            999 V2000
    2.8579   -2.5410    0.0000 O   0  0  0  0  0  0  0  0  0  0  0  0
    2.1434   -2.9535    0.0000 C   0  0  0  0  0  0  0  0  0  0  0  0
    2.1434   -3.7785    0.0000 O   0  0  0  0  0  0  0  0  0  0  0  0
    1.4289   -2.5410    0.0000 C   0  0  0  0  0  0  0  0  0  0  0  0
    1.4289   -1.7160    0.0000 C   0  0  0  0  0  0  0  0  0  0  0  0
    2.1434   -1.3035    0.0000 C   0  0  0  0  0  0  0  0  0  0  0  0
    2.1434   -0.4785    0.0000 C   0  0  0  0  0  0  0  0  0  0  0  0
    1.4289   -0.0660    0.0000 C   0  0  0  0  0  0  0  0  0  0  0  0
    0.7145   -0.4785    0.0000 C   0  0  0  0  0  0  0  0  0  0  0  0
    0.0000   -0.0660    0.0000 C   0  0  0  0  0  0  0  0  0  0  0  0
   -0.7145   -0.4785    0.0000 C   0  0  0  0  0  0  0  0  0  0  0  0
   -0.7145   -1.3035    0.0000 C   0  0  0  0  0  0  0  0  0  0  0  0
    0.0000   -1.7160    0.0000 C   0  0  0  0  0  0  0  0  0  0  0  0
    0.7145   -1.3035    0.0000 C   0  0  0  0  0  0  0  0  0  0  0  0
   -1.4289   -0.0660    0.0000 N   0  0  0  0  0  0  0  0  0  0  0  0
   -1.4289    0.7590    0.0000 S   0  0  0  0  0  0  0  0  0  0  0  0
   -2.2539    0.7590    0.0000 O   0  0  0  0  0  0  0  0  0  0  0  0
   -0.6039    0.7590    0.0000 O   0  0  0  0  0  0  0  0  0  0  0  0
   -1.4289    1.5840    0.0000 C   0  0  0  0  0  0  0  0  0  0  0  0
   -0.7145    1.9965    0.0000 C   0  0  0  0  0  0  0  0  0  0  0  0
   -0.7145    2.8215    0.0000 C   0  0  0  0  0  0  0  0  0  0  0  0
   -1.4289    3.2340    0.0000 C   0  0  0  0  0  0  0  0  0  0  0  0
   -1.4289    4.0590    0.0000 Cl  0  0  0  0  0  0  0  0  0  0  0  0
   -2.1434    2.8215    0.0000 C   0  0  0  0  0  0  0  0  0  0  0  0
   -2.1434    1.9965    0.0000 C   0  0  0  0  0  0  0  0  0  0  0  0
  1  2  1  0  0  0  0
  2  3  2  0  0  0  0
  2  4  1  0  0  0  0
  4  5  1  0  0  0  0
  5  6  1  0  0  0  0
  6  7  2  0  0  0  0
  7  8  1  0  0  0  0
  8  9  2  0  0  0  0
  9 10  1  0  0  0  0
 10 11  1  0  0  0  0
 11 12  1  0  0  0  0
 12 13  1  0  0  0  0
 13 14  1  0  0  0  0
  5 14  2  0  0  0  0
  9 14  1  0  0  0  0
 11 15  1  0  0  0  0
 15 16  1  0  0  0  0
 16 17  2  0  0  0  0
 16 18  2  0  0  0  0
 16 19  1  0  0  0  0
 19 20  1  0  0  0  0
 20 21  2  0  0  0  0
 21 22  1  0  0  0  0
 22 23  1  0  0  0  0
 22 24  2  0  0  0  0
 24 25  1  0  0  0  0
 19 25  2  0  0  0  0
M  END
>  <Name>
CHEMBL3335473

>  <Target_Uniprot>
P21731

>  <CHEMBL Canonical SMILES>
OC(=O)Cc1cccc2CC(CCc12)NS(=O)(=O)c3ccc(Cl)cc3

>  <PubMed ID>
25221659

$$$$

  Marvin  08031817322D          

 37 41  0  0  0  0            999 V2000
    0.0816   -1.8939    0.0000 O   0  0  0  0  0  0  0  0  0  0  0  0
    0.5763   -2.5592    0.0000 C   0  0  0  0  0  0  0  0  0  0  0  0
    0.3901   -3.3660    0.0000 O   0  0  0  0  0  0  0  0  0  0  0  0
    1.3683   -2.3330    0.0000 C   0  0  0  0  0  0  0  0  0  0  0  0
    1.7790   -1.6276    0.0000 C   0  0  0  0  0  0  0  0  0  0  0  0
    2.5647   -1.4084    0.0000 C   0  0  0  0  0  0  0  0  0  0  0  0
    3.1174   -2.0245    0.0000 C   0  0  0  0  0  0  0  0  0  0  0  0
    3.9302   -1.8553    0.0000 C   0  0  0  0  0  0  0  0  0  0  0  0
    4.1860   -1.0698    0.0000 C   0  0  0  0  0  0  0  0  0  0  0  0
    3.6297   -0.4546    0.0000 C   0  0  0  0  0  0  0  0  0  0  0  0
    2.8203   -0.6297    0.0000 C   0  0  0  0  0  0  0  0  0  0  0  0
    2.3233    0.0061    0.0000 C   0  0  0  0  0  0  0  0  0  0  0  0
    2.4746    0.7701    0.0000 C   0  0  0  0  0  0  0  0  0  0  0  0
    3.3388    0.9595    0.0000 C   0  0  0  0  0  0  0  0  0  0  0  0
    3.8805    1.7696    0.0000 C   0  0  0  0  0  0  0  0  0  0  0  0
    3.3232    2.4780    0.0000 C   0  0  0  0  0  0  0  0  0  0  0  0
    2.6560    2.0399    0.0000 C   0  0  0  0  0  0  0  0  0  0  0  0
    3.4828    1.5641    0.0000 O   0  0  0  0  0  0  0  0  0  0  0  0
    2.0644    1.4742    0.0000 C   0  0  0  0  0  0  0  0  0  0  0  0
    1.1874    1.4553    0.0000 C   0  0  0  0  0  0  0  0  0  0  0  0
    0.6925    2.1255    0.0000 O   0  0  0  0  0  0  0  0  0  0  0  0
   -0.0938    1.8696    0.0000 C   0  0  0  0  0  0  0  0  0  0  0  0
   -0.0931    1.0421    0.0000 C   0  0  0  0  0  0  0  0  0  0  0  0
    0.6926    0.7852    0.0000 N   0  0  0  0  0  0  0  0  0  0  0  0
   -0.7457    0.5389    0.0000 C   0  0  0  0  0  0  0  0  0  0  0  0
   -1.4437    0.9785    0.0000 N   0  0  0  0  0  0  0  0  0  0  0  0
   -2.1105    0.4899    0.0000 C   0  0  0  0  0  0  0  0  0  0  0  0
   -2.9126    0.6820    0.0000 C   0  0  0  0  0  0  0  0  0  0  0  0
   -3.6405    0.3095    0.0000 C   0  0  0  0  0  0  0  0  0  0  0  0
   -4.4111    0.5382    0.0000 C   0  0  0  0  0  0  0  0  0  0  0  0
   -5.0736    0.0922    0.0000 C   0  0  0  0  0  0  0  0  0  0  0  0
   -5.8235    0.4265    0.0000 C   0  0  0  0  0  0  0  0  0  0  0  0
   -6.4955   -0.0606    0.0000 C   0  0  0  0  0  0  0  0  0  0  0  0
   -6.4065   -0.8841    0.0000 C   0  0  0  0  0  0  0  0  0  0  0  0
   -5.6485   -1.2181    0.0000 C   0  0  0  0  0  0  0  0  0  0  0  0
   -4.9810   -0.7254    0.0000 C   0  0  0  0  0  0  0  0  0  0  0  0
   -0.6802   -0.2849    0.0000 S   0  0  0  0  0  0  0  0  0  0  0  0
  1  2  1  0  0  0  0
  2  3  2  0  0  0  0
  2  4  1  0  0  0  0
  4  5  1  0  0  0  0
  5  6  1  0  0  0  0
  6  7  1  0  0  0  0
  7  8  2  0  0  0  0
  8  9  1  0  0  0  0
  9 10  2  0  0  0  0
 10 11  1  0  0  0  0
  6 11  2  0  0  0  0
 11 12  1  0  0  0  0
 12 13  1  0  0  0  0
 13 14  1  0  0  0  0
 14 15  1  0  0  0  0
 15 16  1  0  0  0  0
 16 17  1  0  0  0  0
 17 18  1  0  0  0  0
 14 18  1  0  0  0  0
 17 19  1  0  0  0  0
 13 19  1  0  0  0  0
 19 20  1  0  0  0  0
 20 21  1  0  0  0  0
 21 22  1  0  0  0  0
 22 23  2  0  0  0  0
 23 24  1  0  0  0  0
 20 24  2  0  0  0  0
 23 25  1  0  0  0  0
 25 26  2  0  0  0  0
 26 27  1  0  0  0  0
 27 28  1  0  0  0  0
 28 29  1  0  0  0  0
 29 30  1  0  0  0  0
 30 31  1  0  0  0  0
 31 32  1  0  0  0  0
 32 33  1  0  0  0  0
 33 34  1  0  0  0  0
 34 35  1  0  0  0  0
 35 36  1  0  0  0  0
 31 36  1  0  0  0  0
 25 37  1  0  0  0  0
M  END
>  <Name>
CHEMBL416395

>  <Target_Uniprot>
P21731

>  <CHEMBL Canonical SMILES>
OC(=O)CCc1ccccc1CC2C3CCC(O3)C2c4occ(n4)\C(=N\CCCCC5CCCCC5)\S

>  <PubMed ID>
8496908

$$$$

  Marvin  08031817322D          

 30 33  0  0  0  0            999 V2000
   -1.4241   -4.7488    0.0000 C   0  0  0  0  0  0  0  0  0  0  0  0
   -0.7893   -4.2269    0.0000 C   0  0  0  0  0  0  0  0  0  0  0  0
   -0.7004   -3.4133    0.0000 C   0  0  0  0  0  0  0  0  0  0  0  0
   -0.1435   -2.8117    0.0000 N   0  0  0  0  0  0  0  0  0  0  0  0
   -0.2212   -1.9880    0.0000 C   0  0  0  0  0  0  0  0  0  0  0  0
   -1.0043   -1.7032    0.0000 O   0  0  0  0  0  0  0  0  0  0  0  0
    0.5021   -1.5746    0.0000 C   0  0  0  0  0  0  0  0  0  0  0  0
    1.2918   -1.8299    0.0000 C   0  0  0  0  0  0  0  0  0  0  0  0
    1.7720   -1.1649    0.0000 O   0  0  0  0  0  0  0  0  0  0  0  0
    1.2805   -0.5030    0.0000 C   0  0  0  0  0  0  0  0  0  0  0  0
    0.5003   -0.7496    0.0000 N   0  0  0  0  0  0  0  0  0  0  0  0
    1.5453    0.2364    0.0000 C   0  0  0  0  0  0  0  0  0  0  0  0
    2.4147    0.4366    0.0000 C   0  0  0  0  0  0  0  0  0  0  0  0
    2.9316    1.2698    0.0000 C   0  0  0  0  0  0  0  0  0  0  0  0
    2.3693    1.9483    0.0000 C   0  0  0  0  0  0  0  0  0  0  0  0
    1.7173    1.5089    0.0000 C   0  0  0  0  0  0  0  0  0  0  0  0
    2.5462    1.0403    0.0000 O   0  0  0  0  0  0  0  0  0  0  0  0
    1.1197    0.9449    0.0000 C   0  0  0  0  0  0  0  0  0  0  0  0
    0.2121    1.0053    0.0000 C   0  0  0  0  0  0  0  0  0  0  0  0
   -0.1939    1.7235    0.0000 C   0  0  0  0  0  0  0  0  0  0  0  0
    0.2204    2.4310    0.0000 C   0  0  0  0  0  0  0  0  0  0  0  0
   -0.1903    3.1378    0.0000 C   0  0  0  0  0  0  0  0  0  0  0  0
   -1.0258    3.1386    0.0000 C   0  0  0  0  0  0  0  0  0  0  0  0
   -1.4379    2.4268    0.0000 C   0  0  0  0  0  0  0  0  0  0  0  0
   -1.0279    1.7177    0.0000 C   0  0  0  0  0  0  0  0  0  0  0  0
   -1.4701    1.0062    0.0000 C   0  0  0  0  0  0  0  0  0  0  0  0
   -2.2861    0.8494    0.0000 C   0  0  0  0  0  0  0  0  0  0  0  0
   -2.7266    0.1557    0.0000 C   0  0  0  0  0  0  0  0  0  0  0  0
   -2.2400   -0.5050    0.0000 O   0  0  0  0  0  0  0  0  0  0  0  0
   -3.5422    0.2416    0.0000 O   0  0  0  0  0  0  0  0  0  0  0  0
  1  2  1  0  0  0  0
  2  3  1  0  0  0  0
  3  4  1  0  0  0  0
  4  5  1  0  0  0  0
  5  6  2  0  0  0  0
  5  7  1  0  0  0  0
  7  8  2  0  0  0  0
  8  9  1  0  0  0  0
  9 10  1  0  0  0  0
 10 11  2  0  0  0  0
  7 11  1  0  0  0  0
 10 12  1  0  0  0  0
 12 13  1  0  0  0  0
 13 14  1  0  0  0  0
 14 15  1  0  0  0  0
 15 16  1  0  0  0  0
 16 17  1  0  0  0  0
 13 17  1  0  0  0  0
 16 18  1  0  0  0  0
 12 18  1  0  0  0  0
 18 19  1  0  0  0  0
 19 20  1  0  0  0  0
 20 21  1  0  0  0  0
 21 22  2  0  0  0  0
 22 23  1  0  0  0  0
 23 24  2  0  0  0  0
 24 25  1  0  0  0  0
 20 25  2  0  0  0  0
 25 26  1  0  0  0  0
 26 27  1  0  0  0  0
 27 28  1  0  0  0  0
 28 29  2  0  0  0  0
 28 30  1  0  0  0  0
M  END
>  <Name>
CHEMBL433435

>  <Target_Uniprot>
P21731

>  <CHEMBL Canonical SMILES>
CCCNC(=O)c1coc(n1)C2C3CCC(O3)C2Cc4ccccc4CCC(=O)O

>  <PubMed ID>
8496908

$$$$

  Marvin  08031817322D          

 30 33  0  0  0  0            999 V2000
   -2.1075    3.6984    0.0000 C   0  0  0  0  0  0  0  0  0  0  0  0
   -2.5824    3.0238    0.0000 C   0  0  0  0  0  0  0  0  0  0  0  0
   -3.4073    3.0114    0.0000 C   0  0  0  0  0  0  0  0  0  0  0  0
   -3.6505    2.2231    0.0000 C   0  0  0  0  0  0  0  0  0  0  0  0
   -2.9759    1.7482    0.0000 S   0  0  0  0  0  0  0  0  0  0  0  0
   -2.3158    2.2431    0.0000 C   0  0  0  0  0  0  0  0  0  0  0  0
   -1.5274    1.9999    0.0000 C   0  0  0  0  0  0  0  0  0  0  0  0
   -0.9226    2.5610    0.0000 O   0  0  0  0  0  0  0  0  0  0  0  0
   -1.3438    1.1956    0.0000 N   0  0  0  0  0  0  0  0  0  0  0  0
   -0.5555    0.9524    0.0000 C   0  0  0  0  0  0  0  0  0  0  0  0
   -0.3719    0.1481    0.0000 C   0  0  0  0  0  0  0  0  0  0  0  0
    0.4164   -0.0951    0.0000 S   0  0  0  0  0  0  0  0  0  0  0  0
    0.6000   -0.8994    0.0000 C   0  0  0  0  0  0  0  0  0  0  0  0
   -0.0450   -1.4138    0.0000 C   0  0  0  0  0  0  0  0  0  0  0  0
   -0.7595   -1.0013    0.0000 C   0  0  0  0  0  0  0  0  0  0  0  0
   -1.4739   -1.4138    0.0000 C   0  0  0  0  0  0  0  0  0  0  0  0
   -1.4739   -2.2388    0.0000 C   0  0  0  0  0  0  0  0  0  0  0  0
   -0.7595   -2.6513    0.0000 C   0  0  0  0  0  0  0  0  0  0  0  0
   -0.0450   -2.2388    0.0000 C   0  0  0  0  0  0  0  0  0  0  0  0
    0.6000   -2.7532    0.0000 C   0  0  0  0  0  0  0  0  0  0  0  0
    1.4043   -2.5696    0.0000 O   0  0  0  0  0  0  0  0  0  0  0  0
    1.7623   -1.8263    0.0000 C   0  0  0  0  0  0  0  0  0  0  0  0
    2.5850   -1.8879    0.0000 C   0  0  0  0  0  0  0  0  0  0  0  0
    3.0497   -1.2063    0.0000 C   0  0  0  0  0  0  0  0  0  0  0  0
    2.6918   -0.4630    0.0000 C   0  0  0  0  0  0  0  0  0  0  0  0
    1.8691   -0.4013    0.0000 C   0  0  0  0  0  0  0  0  0  0  0  0
    1.4043   -1.0830    0.0000 C   0  0  0  0  0  0  0  0  0  0  0  0
    3.1565    0.2187    0.0000 C   0  0  0  0  0  0  0  0  0  0  0  0
    2.7986    0.9620    0.0000 O   0  0  0  0  0  0  0  0  0  0  0  0
    3.9792    0.1570    0.0000 O   0  0  0  0  0  0  0  0  0  0  0  0
  1  2  1  0  0  0  0
  2  3  1  0  0  0  0
  3  4  2  0  0  0  0
  4  5  1  0  0  0  0
  5  6  1  0  0  0  0
  2  6  2  0  0  0  0
  6  7  1  0  0  0  0
  7  8  2  0  0  0  0
  7  9  1  0  0  0  0
  9 10  1  0  0  0  0
 10 11  1  0  0  0  0
 11 12  1  0  0  0  0
 12 13  1  0  0  0  0
 13 14  1  0  0  0  0
 14 15  1  0  0  0  0
 15 16  2  0  0  0  0
 16 17  1  0  0  0  0
 17 18  2  0  0  0  0
 18 19  1  0  0  0  0
 14 19  2  0  0  0  0
 19 20  1  0  0  0  0
 20 21  1  0  0  0  0
 21 22  1  0  0  0  0
 22 23  1  0  0  0  0
 23 24  2  0  0  0  0
 24 25  1  0  0  0  0
 25 26  2  0  0  0  0
 26 27  1  0  0  0  0
 13 27  1  0  0  0  0
 22 27  2  0  0  0  0
 25 28  1  0  0  0  0
 28 29  2  0  0  0  0
 28 30  1  0  0  0  0
M  END
>  <Name>
CHEMBL115924

>  <Target_Uniprot>
P21731

>  <CHEMBL Canonical SMILES>
Cc1ccsc1C(=O)NCCSC2c3ccccc3COc4ccc(cc24)C(=O)O

>  <PubMed ID>
1388207

$$$$

  Marvin  08031817322D          

 39 42  0  0  0  0            999 V2000
    3.3371   -3.7891    0.0000 O   0  0  0  0  0  0  0  0  0  0  0  0
    3.0822   -4.5738    0.0000 C   0  0  0  0  0  0  0  0  0  0  0  0
    3.6342   -5.1868    0.0000 O   0  0  0  0  0  0  0  0  0  0  0  0
    2.2752   -4.7453    0.0000 C   0  0  0  0  0  0  0  0  0  0  0  0
    1.7232   -4.1322    0.0000 C   0  0  0  0  0  0  0  0  0  0  0  0
    0.9162   -4.3037    0.0000 C   0  0  0  0  0  0  0  0  0  0  0  0
    0.3642   -3.6906    0.0000 C   0  0  0  0  0  0  0  0  0  0  0  0
   -0.4428   -3.8621    0.0000 C   0  0  0  0  0  0  0  0  0  0  0  0
   -0.9949   -3.2491    0.0000 C   0  0  0  0  0  0  0  0  0  0  0  0
   -0.7399   -2.4644    0.0000 C   0  0  0  0  0  0  0  0  0  0  0  0
    0.0671   -2.2929    0.0000 C   0  0  0  0  0  0  0  0  0  0  0  0
    0.3220   -1.5083    0.0000 C   0  0  0  0  0  0  0  0  0  0  0  0
   -0.2300   -0.8952    0.0000 C   0  0  0  0  0  0  0  0  0  0  0  0
   -1.0370   -1.0667    0.0000 C   0  0  0  0  0  0  0  0  0  0  0  0
   -1.2919   -1.8513    0.0000 C   0  0  0  0  0  0  0  0  0  0  0  0
    0.0249   -0.1106    0.0000 C   0  0  0  0  0  0  0  0  0  0  0  0
    0.8095    0.1444    0.0000 O   0  0  0  0  0  0  0  0  0  0  0  0
    0.8095    0.9694    0.0000 C   0  0  0  0  0  0  0  0  0  0  0  0
    0.0249    1.2243    0.0000 C   0  0  0  0  0  0  0  0  0  0  0  0
   -0.4600    0.5569    0.0000 N   0  0  0  0  0  0  0  0  0  0  0  0
   -0.2300    2.0089    0.0000 C   0  0  0  0  0  0  0  0  0  0  0  0
   -1.0370    2.1805    0.0000 O   0  0  0  0  0  0  0  0  0  0  0  0
    0.3220    2.6220    0.0000 N   0  0  0  0  0  0  0  0  0  0  0  0
    0.0671    3.4066    0.0000 C   0  0  0  0  0  0  0  0  0  0  0  0
    0.6191    4.0197    0.0000 C   0  0  0  0  0  0  0  0  0  0  0  0
    0.3642    4.8044    0.0000 C   0  0  0  0  0  0  0  0  0  0  0  0
    0.9162    5.4175    0.0000 C   0  0  0  0  0  0  0  0  0  0  0  0
    0.6612    6.2021    0.0000 C   0  0  0  0  0  0  0  0  0  0  0  0
    1.2133    6.8152    0.0000 C   0  0  0  0  0  0  0  0  0  0  0  0
    0.9583    7.5998    0.0000 C   0  0  0  0  0  0  0  0  0  0  0  0
    0.1514    7.7713    0.0000 C   0  0  0  0  0  0  0  0  0  0  0  0
   -0.4007    7.1582    0.0000 C   0  0  0  0  0  0  0  0  0  0  0  0
   -0.1457    6.3736    0.0000 C   0  0  0  0  0  0  0  0  0  0  0  0
   -1.8018   -3.4206    0.0000 C   0  0  0  0  0  0  0  0  0  0  0  0
   -2.3539   -2.8075    0.0000 C   0  0  0  0  0  0  0  0  0  0  0  0
   -3.1608   -2.9790    0.0000 C   0  0  0  0  0  0  0  0  0  0  0  0
   -3.4158   -3.7636    0.0000 C   0  0  0  0  0  0  0  0  0  0  0  0
   -2.8637   -4.3767    0.0000 N   0  0  0  0  0  0  0  0  0  0  0  0
   -2.0568   -4.2052    0.0000 C   0  0  0  0  0  0  0  0  0  0  0  0
  1  2  1  0  0  0  0
  2  3  2  0  0  0  0
  2  4  1  0  0  0  0
  4  5  1  0  0  0  0
  5  6  1  0  0  0  0
  6  7  1  0  0  0  0
  7  8  1  0  0  0  0
  8  9  2  0  0  0  0
  9 10  1  0  0  0  0
 10 11  1  0  0  0  0
 11 12  2  0  0  0  0
 12 13  1  0  0  0  0
 13 14  2  0  0  0  0
 14 15  1  0  0  0  0
 10 15  2  0  0  0  0
 13 16  1  0  0  0  0
 16 17  1  0  0  0  0
 17 18  1  0  0  0  0
 18 19  2  0  0  0  0
 19 20  1  0  0  0  0
 16 20  2  0  0  0  0
 19 21  1  0  0  0  0
 21 22  2  0  0  0  0
 21 23  1  0  0  0  0
 23 24  1  0  0  0  0
 24 25  1  0  0  0  0
 25 26  1  0  0  0  0
 26 27  1  0  0  0  0
 27 28  1  0  0  0  0
 28 29  1  0  0  0  0
 29 30  1  0  0  0  0
 30 31  1  0  0  0  0
 31 32  1  0  0  0  0
 32 33  1  0  0  0  0
 28 33  1  0  0  0  0
  9 34  1  0  0  0  0
 34 35  1  0  0  0  0
 35 36  2  0  0  0  0
 36 37  1  0  0  0  0
 37 38  2  0  0  0  0
 38 39  1  0  0  0  0
 34 39  2  0  0  0  0
M  END
>  <Name>
CHEMBL299467

>  <Target_Uniprot>
P21731

>  <CHEMBL Canonical SMILES>
OC(=O)CCCC\C=C(/c1ccc(cc1)c2occ(n2)C(=O)NCCCCC3CCCCC3)\c4cccnc4

>  <PubMed ID>
9873463

$$$$

  Marvin  08031817322D          

 39 44  0  0  0  0            999 V2000
   -1.2537   -0.5967    0.0000 O   0  0  0  0  0  0  0  0  0  0  0  0
   -1.1798   -1.4183    0.0000 C   0  0  0  0  0  0  0  0  0  0  0  0
   -1.8544   -1.8932    0.0000 O   0  0  0  0  0  0  0  0  0  0  0  0
   -0.4312   -1.7651    0.0000 C   0  0  0  0  0  0  0  0  0  0  0  0
   -0.3572   -2.5868    0.0000 C   0  0  0  0  0  0  0  0  0  0  0  0
    0.3913   -2.9336    0.0000 C   0  0  0  0  0  0  0  0  0  0  0  0
    1.0660   -2.4587    0.0000 C   0  0  0  0  0  0  0  0  0  0  0  0
    1.7545   -2.9132    0.0000 O   0  0  0  0  0  0  0  0  0  0  0  0
    2.5391   -2.6583    0.0000 C   0  0  0  0  0  0  0  0  0  0  0  0
    2.8290   -1.8859    0.0000 C   0  0  0  0  0  0  0  0  0  0  0  0
    3.6539   -1.8735    0.0000 C   0  0  0  0  0  0  0  0  0  0  0  0
    4.0557   -1.1530    0.0000 C   0  0  0  0  0  0  0  0  0  0  0  0
    3.6325   -0.4448    0.0000 C   0  0  0  0  0  0  0  0  0  0  0  0
    2.8076   -0.4571    0.0000 C   0  0  0  0  0  0  0  0  0  0  0  0
    2.4058   -1.1777    0.0000 C   0  0  0  0  0  0  0  0  0  0  0  0
    1.5883   -1.0669    0.0000 C   0  0  0  0  0  0  0  0  0  0  0  0
    1.3334   -0.2823    0.0000 C   0  0  0  0  0  0  0  0  0  0  0  0
    1.8854    0.3308    0.0000 C   0  0  0  0  0  0  0  0  0  0  0  0
    1.6305    1.1154    0.0000 N   0  0  0  0  0  0  0  0  0  0  0  0
    2.1154    1.7829    0.0000 C   0  0  0  0  0  0  0  0  0  0  0  0
    1.6305    2.4503    0.0000 N   0  0  0  0  0  0  0  0  0  0  0  0
    0.8458    2.1954    0.0000 C   0  0  0  0  0  0  0  0  0  0  0  0
    0.1314    2.6079    0.0000 C   0  0  0  0  0  0  0  0  0  0  0  0
   -0.5831    2.1954    0.0000 C   0  0  0  0  0  0  0  0  0  0  0  0
   -0.5831    1.3704    0.0000 C   0  0  0  0  0  0  0  0  0  0  0  0
    0.1314    0.9579    0.0000 C   0  0  0  0  0  0  0  0  0  0  0  0
    0.8458    1.3704    0.0000 C   0  0  0  0  0  0  0  0  0  0  0  0
   -1.2976    0.9579    0.0000 C   0  0  0  0  0  0  0  0  0  0  0  0
   -1.2976    0.1329    0.0000 O   0  0  0  0  0  0  0  0  0  0  0  0
   -2.0120    1.3704    0.0000 N   0  0  0  0  0  0  0  0  0  0  0  0
   -2.7265    0.9579    0.0000 C   0  0  0  0  0  0  0  0  0  0  0  0
   -3.4410    1.3704    0.0000 C   0  0  0  0  0  0  0  0  0  0  0  0
   -3.4410    2.1954    0.0000 C   0  0  0  0  0  0  0  0  0  0  0  0
   -4.1554    2.6079    0.0000 C   0  0  0  0  0  0  0  0  0  0  0  0
   -4.8699    2.1954    0.0000 C   0  0  0  0  0  0  0  0  0  0  0  0
   -4.8699    1.3704    0.0000 C   0  0  0  0  0  0  0  0  0  0  0  0
   -4.1554    0.9579    0.0000 C   0  0  0  0  0  0  0  0  0  0  0  0
    0.9920   -1.6370    0.0000 C   0  0  0  0  0  0  0  0  0  0  0  0
    0.2434   -1.2903    0.0000 C   0  0  0  0  0  0  0  0  0  0  0  0
  1  2  1  0  0  0  0
  2  3  2  0  0  0  0
  2  4  1  0  0  0  0
  4  5  1  0  0  0  0
  5  6  2  0  0  0  0
  6  7  1  0  0  0  0
  7  8  1  0  0  0  0
  8  9  1  0  0  0  0
  9 10  1  0  0  0  0
 10 11  1  0  0  0  0
 11 12  2  0  0  0  0
 12 13  1  0  0  0  0
 13 14  2  0  0  0  0
 14 15  1  0  0  0  0
 10 15  2  0  0  0  0
 15 16  1  0  0  0  0
 16 17  2  0  0  0  0
 17 18  1  0  0  0  0
 18 19  1  0  0  0  0
 19 20  1  0  0  0  0
 20 21  2  0  0  0  0
 21 22  1  0  0  0  0
 22 23  1  0  0  0  0
 23 24  2  0  0  0  0
 24 25  1  0  0  0  0
 25 26  2  0  0  0  0
 26 27  1  0  0  0  0
 19 27  1  0  0  0  0
 22 27  2  0  0  0  0
 25 28  1  0  0  0  0
 28 29  2  0  0  0  0
 28 30  1  0  0  0  0
 30 31  1  0  0  0  0
 31 32  1  0  0  0  0
 32 33  1  0  0  0  0
 33 34  2  0  0  0  0
 34 35  1  0  0  0  0
 35 36  2  0  0  0  0
 36 37  1  0  0  0  0
 32 37  2  0  0  0  0
 16 38  1  0  0  0  0
  7 38  2  0  0  0  0
 38 39  1  0  0  0  0
  4 39  2  0  0  0  0
M  END
>  <Name>
CHEMBL117943

>  <Target_Uniprot>
P21731

>  <CHEMBL Canonical SMILES>
OC(=O)c1ccc2OCc3ccccc3\C(=C/Cn4cnc5ccc(cc45)C(=O)NCc6ccccc6)\c2c1

>  <PubMed ID>
1388208

$$$$

  Marvin  08031817322D          

 28 29  0  0  0  0            999 V2000
    0.0000    0.0000    0.0000 Na  0  3  0  0  0  0  0  0  0  0  0  0
    7.3658   -2.9944    0.0000 O   0  5  0  0  0  0  0  0  0  0  0  0
    8.0802   -2.5819    0.0000 C   0  0  0  0  0  0  0  0  0  0  0  0
    8.7947   -2.9944    0.0000 O   0  0  0  0  0  0  0  0  0  0  0  0
    8.0802   -1.7569    0.0000 C   0  0  0  0  0  0  0  0  0  0  0  0
    8.7947   -1.3444    0.0000 C   0  0  0  0  0  0  0  0  0  0  0  0
    8.7947   -0.5194    0.0000 C   0  0  0  0  0  0  0  0  0  0  0  0
    8.0802   -0.1069    0.0000 C   0  0  0  0  0  0  0  0  0  0  0  0
    7.3658   -0.5194    0.0000 C   0  0  0  0  0  0  0  0  0  0  0  0
    6.6513   -0.1069    0.0000 C   0  0  0  0  0  0  0  0  0  0  0  0
    6.6513    0.7181    0.0000 C   0  0  0  0  0  0  0  0  0  0  0  0
    7.3658    1.1306    0.0000 C   0  0  0  0  0  0  0  0  0  0  0  0
    7.3658    1.9556    0.0000 C   0  0  0  0  0  0  0  0  0  0  0  0
    8.0802    2.3681    0.0000 Cl  0  0  0  0  0  0  0  0  0  0  0  0
    6.6513    2.3681    0.0000 C   0  0  0  0  0  0  0  0  0  0  0  0
    5.9368    1.9556    0.0000 C   0  0  0  0  0  0  0  0  0  0  0  0
    5.9368    1.1306    0.0000 C   0  0  0  0  0  0  0  0  0  0  0  0
    5.2224    0.7181    0.0000 O   0  0  0  0  0  0  0  0  0  0  0  0
    4.5079    1.1306    0.0000 C   0  0  0  0  0  0  0  0  0  0  0  0
    3.7934    0.7181    0.0000 C   0  0  0  0  0  0  0  0  0  0  0  0
    3.0789    1.1306    0.0000 C   0  0  0  0  0  0  0  0  0  0  0  0
    2.3645    0.7181    0.0000 C   0  0  0  0  0  0  0  0  0  0  0  0
    2.3645   -0.1069    0.0000 C   0  0  0  0  0  0  0  0  0  0  0  0
    1.6500   -0.5194    0.0000 Cl  0  0  0  0  0  0  0  0  0  0  0  0
    3.0789   -0.5194    0.0000 C   0  0  0  0  0  0  0  0  0  0  0  0
    3.7934   -0.1069    0.0000 C   0  0  0  0  0  0  0  0  0  0  0  0
    4.5079   -0.5194    0.0000 F   0  0  0  0  0  0  0  0  0  0  0  0
    7.3658   -1.3444    0.0000 N   0  0  0  0  0  0  0  0  0  0  0  0
  2  3  1  0  0  0  0
  3  4  2  0  0  0  0
  3  5  1  0  0  0  0
  5  6  1  0  0  0  0
  6  7  2  0  0  0  0
  7  8  1  0  0  0  0
  8  9  2  0  0  0  0
  9 10  1  0  0  0  0
 10 11  1  0  0  0  0
 11 12  1  0  0  0  0
 12 13  2  0  0  0  0
 13 14  1  0  0  0  0
 13 15  1  0  0  0  0
 15 16  2  0  0  0  0
 16 17  1  0  0  0  0
 11 17  2  0  0  0  0
 17 18  1  0  0  0  0
 18 19  1  0  0  0  0
 19 20  1  0  0  0  0
 20 21  1  0  0  0  0
 21 22  2  0  0  0  0
 22 23  1  0  0  0  0
 23 24  1  0  0  0  0
 23 25  2  0  0  0  0
 25 26  1  0  0  0  0
 20 26  2  0  0  0  0
 26 27  1  0  0  0  0
  9 28  1  0  0  0  0
  5 28  2  0  0  0  0
M  CHG  2   1   1   2  -1
M  END
>  <Name>
CHEMBL467114

>  <Target_Uniprot>
P21731

>  <CHEMBL Canonical SMILES>
[Na+].[O-]C(=O)c1cccc(Cc2cc(Cl)ccc2OCc3ccc(Cl)cc3F)n1

>  <PubMed ID>
19332369

$$$$

  Marvin  08031817322D          

 30 34  0  0  0  0            999 V2000
   -2.2860   -0.1581    0.0000 O   0  0  0  0  0  0  0  0  0  0  0  0
   -2.2120   -0.9797    0.0000 C   0  0  0  0  0  0  0  0  0  0  0  0
   -2.8867   -1.4546    0.0000 O   0  0  0  0  0  0  0  0  0  0  0  0
   -1.4635   -1.3265    0.0000 C   0  0  0  0  0  0  0  0  0  0  0  0
   -1.3895   -2.1482    0.0000 C   0  0  0  0  0  0  0  0  0  0  0  0
   -0.6409   -2.4950    0.0000 C   0  0  0  0  0  0  0  0  0  0  0  0
    0.0337   -2.0201    0.0000 C   0  0  0  0  0  0  0  0  0  0  0  0
    0.7222   -2.4746    0.0000 O   0  0  0  0  0  0  0  0  0  0  0  0
    1.5068   -2.2197    0.0000 C   0  0  0  0  0  0  0  0  0  0  0  0
    1.7967   -1.4473    0.0000 C   0  0  0  0  0  0  0  0  0  0  0  0
    2.6216   -1.4349    0.0000 C   0  0  0  0  0  0  0  0  0  0  0  0
    3.0234   -0.7144    0.0000 C   0  0  0  0  0  0  0  0  0  0  0  0
    2.6002   -0.0062    0.0000 C   0  0  0  0  0  0  0  0  0  0  0  0
    1.7753   -0.0185    0.0000 C   0  0  0  0  0  0  0  0  0  0  0  0
    1.3736   -0.7391    0.0000 C   0  0  0  0  0  0  0  0  0  0  0  0
    0.5560   -0.6283    0.0000 C   0  0  0  0  0  0  0  0  0  0  0  0
    0.3011    0.1563    0.0000 C   0  0  0  0  0  0  0  0  0  0  0  0
    0.8531    0.7694    0.0000 C   0  0  0  0  0  0  0  0  0  0  0  0
    0.5982    1.5540    0.0000 N   0  0  0  0  0  0  0  0  0  0  0  0
    1.0831    2.2215    0.0000 C   0  0  0  0  0  0  0  0  0  0  0  0
    0.5982    2.8889    0.0000 N   0  0  0  0  0  0  0  0  0  0  0  0
   -0.1864    2.6340    0.0000 C   0  0  0  0  0  0  0  0  0  0  0  0
   -0.9009    3.0465    0.0000 C   0  0  0  0  0  0  0  0  0  0  0  0
   -1.6154    2.6340    0.0000 C   0  0  0  0  0  0  0  0  0  0  0  0
   -1.6154    1.8090    0.0000 C   0  0  0  0  0  0  0  0  0  0  0  0
   -2.3299    1.3965    0.0000 F   0  0  0  0  0  0  0  0  0  0  0  0
   -0.9009    1.3965    0.0000 C   0  0  0  0  0  0  0  0  0  0  0  0
   -0.1864    1.8090    0.0000 C   0  0  0  0  0  0  0  0  0  0  0  0
   -0.0403   -1.1984    0.0000 C   0  0  0  0  0  0  0  0  0  0  0  0
   -0.7889   -0.8516    0.0000 C   0  0  0  0  0  0  0  0  0  0  0  0
  1  2  1  0  0  0  0
  2  3  2  0  0  0  0
  2  4  1  0  0  0  0
  4  5  1  0  0  0  0
  5  6  2  0  0  0  0
  6  7  1  0  0  0  0
  7  8  1  0  0  0  0
  8  9  1  0  0  0  0
  9 10  1  0  0  0  0
 10 11  1  0  0  0  0
 11 12  2  0  0  0  0
 12 13  1  0  0  0  0
 13 14  2  0  0  0  0
 14 15  1  0  0  0  0
 10 15  2  0  0  0  0
 15 16  1  0  0  0  0
 16 17  2  0  0  0  0
 17 18  1  0  0  0  0
 18 19  1  0  0  0  0
 19 20  1  0  0  0  0
 20 21  2  0  0  0  0
 21 22  1  0  0  0  0
 22 23  1  0  0  0  0
 23 24  2  0  0  0  0
 24 25  1  0  0  0  0
 25 26  1  0  0  0  0
 25 27  2  0  0  0  0
 27 28  1  0  0  0  0
 19 28  1  0  0  0  0
 22 28  2  0  0  0  0
 16 29  1  0  0  0  0
  7 29  2  0  0  0  0
 29 30  1  0  0  0  0
  4 30  2  0  0  0  0
M  END
>  <Name>
CHEMBL115238

>  <Target_Uniprot>
P21731

>  <CHEMBL Canonical SMILES>
OC(=O)c1ccc2OCc3ccccc3\C(=C/Cn4cnc5ccc(F)cc45)\c2c1

>  <PubMed ID>
1388208

$$$$

  Marvin  08031817322D          

 32 36  0  0  0  0            999 V2000
   -2.1181   -0.2324    0.0000 O   0  0  0  0  0  0  0  0  0  0  0  0
   -2.0441   -1.0541    0.0000 C   0  0  0  0  0  0  0  0  0  0  0  0
   -2.7187   -1.5290    0.0000 O   0  0  0  0  0  0  0  0  0  0  0  0
   -1.2955   -1.4009    0.0000 C   0  0  0  0  0  0  0  0  0  0  0  0
   -1.2216   -2.2226    0.0000 C   0  0  0  0  0  0  0  0  0  0  0  0
   -0.4730   -2.5694    0.0000 C   0  0  0  0  0  0  0  0  0  0  0  0
    0.2016   -2.0945    0.0000 C   0  0  0  0  0  0  0  0  0  0  0  0
    0.8901   -2.5490    0.0000 O   0  0  0  0  0  0  0  0  0  0  0  0
    1.6748   -2.2941    0.0000 C   0  0  0  0  0  0  0  0  0  0  0  0
    1.9646   -1.5217    0.0000 C   0  0  0  0  0  0  0  0  0  0  0  0
    2.7895   -1.5093    0.0000 C   0  0  0  0  0  0  0  0  0  0  0  0
    3.1913   -0.7888    0.0000 C   0  0  0  0  0  0  0  0  0  0  0  0
    2.7682   -0.0805    0.0000 C   0  0  0  0  0  0  0  0  0  0  0  0
    1.9433   -0.0929    0.0000 C   0  0  0  0  0  0  0  0  0  0  0  0
    1.5415   -0.8134    0.0000 C   0  0  0  0  0  0  0  0  0  0  0  0
    0.7240   -0.7027    0.0000 C   0  0  0  0  0  0  0  0  0  0  0  0
    0.4690    0.0819    0.0000 C   0  0  0  0  0  0  0  0  0  0  0  0
    1.0211    0.6950    0.0000 C   0  0  0  0  0  0  0  0  0  0  0  0
    0.7661    1.4796    0.0000 N   0  0  0  0  0  0  0  0  0  0  0  0
    1.2510    2.1471    0.0000 C   0  0  0  0  0  0  0  0  0  0  0  0
    0.7661    2.8145    0.0000 N   0  0  0  0  0  0  0  0  0  0  0  0
   -0.0185    2.5596    0.0000 C   0  0  0  0  0  0  0  0  0  0  0  0
   -0.7330    2.9721    0.0000 C   0  0  0  0  0  0  0  0  0  0  0  0
   -1.4474    2.5596    0.0000 C   0  0  0  0  0  0  0  0  0  0  0  0
   -1.4474    1.7346    0.0000 C   0  0  0  0  0  0  0  0  0  0  0  0
   -0.7330    1.3221    0.0000 C   0  0  0  0  0  0  0  0  0  0  0  0
   -0.0185    1.7346    0.0000 C   0  0  0  0  0  0  0  0  0  0  0  0
   -2.1619    1.3221    0.0000 N   0  3  0  0  0  0  0  0  0  0  0  0
   -2.1619    0.4971    0.0000 O   0  0  0  0  0  0  0  0  0  0  0  0
   -2.8764    1.7346    0.0000 O   0  5  0  0  0  0  0  0  0  0  0  0
    0.1277   -1.2728    0.0000 C   0  0  0  0  0  0  0  0  0  0  0  0
   -0.6209   -0.9260    0.0000 C   0  0  0  0  0  0  0  0  0  0  0  0
  1  2  1  0  0  0  0
  2  3  2  0  0  0  0
  2  4  1  0  0  0  0
  4  5  1  0  0  0  0
  5  6  2  0  0  0  0
  6  7  1  0  0  0  0
  7  8  1  0  0  0  0
  8  9  1  0  0  0  0
  9 10  1  0  0  0  0
 10 11  1  0  0  0  0
 11 12  2  0  0  0  0
 12 13  1  0  0  0  0
 13 14  2  0  0  0  0
 14 15  1  0  0  0  0
 10 15  2  0  0  0  0
 15 16  1  0  0  0  0
 16 17  2  0  0  0  0
 17 18  1  0  0  0  0
 18 19  1  0  0  0  0
 19 20  1  0  0  0  0
 20 21  2  0  0  0  0
 21 22  1  0  0  0  0
 22 23  1  0  0  0  0
 23 24  2  0  0  0  0
 24 25  1  0  0  0  0
 25 26  2  0  0  0  0
 26 27  1  0  0  0  0
 19 27  1  0  0  0  0
 22 27  2  0  0  0  0
 25 28  1  0  0  0  0
 28 29  2  0  0  0  0
 28 30  1  0  0  0  0
 16 31  1  0  0  0  0
  7 31  2  0  0  0  0
 31 32  1  0  0  0  0
  4 32  2  0  0  0  0
M  CHG  2  28   1  30  -1
M  END
>  <Name>
CHEMBL116342

>  <Target_Uniprot>
P21731

>  <CHEMBL Canonical SMILES>
OC(=O)c1ccc2OCc3ccccc3\C(=C/Cn4cnc5ccc(cc45)[N+](=O)[O-])\c2c1

>  <PubMed ID>
1388208

$$$$

  Marvin  08031817322D          

 28 31  0  0  0  0            999 V2000
    1.3855   -1.4103    0.0000 C   0  0  0  0  0  0  0  0  0  0  0  0
    2.1000   -0.9978    0.0000 C   0  0  0  0  0  0  0  0  0  0  0  0
    2.8145   -1.4103    0.0000 C   0  0  0  0  0  0  0  0  0  0  0  0
    2.1000   -0.1728    0.0000 C   0  0  0  0  0  0  0  0  0  0  0  0
    2.8145    0.2397    0.0000 C   0  0  0  0  0  0  0  0  0  0  0  0
    2.8145    1.0647    0.0000 C   0  0  0  0  0  0  0  0  0  0  0  0
    2.1000    1.4772    0.0000 C   0  0  0  0  0  0  0  0  0  0  0  0
    1.3855    1.0647    0.0000 C   0  0  0  0  0  0  0  0  0  0  0  0
    0.6009    1.3196    0.0000 C   0  0  0  0  0  0  0  0  0  0  0  0
    0.2653    2.0733    0.0000 C   0  0  0  0  0  0  0  0  0  0  0  0
   -0.5551    2.1595    0.0000 C   0  0  0  0  0  0  0  0  0  0  0  0
   -1.0401    1.4921    0.0000 C   0  0  0  0  0  0  0  0  0  0  0  0
   -0.7045    0.7384    0.0000 C   0  0  0  0  0  0  0  0  0  0  0  0
   -1.1894    0.0710    0.0000 C   0  0  0  0  0  0  0  0  0  0  0  0
   -2.0099    0.1572    0.0000 C   0  0  0  0  0  0  0  0  0  0  0  0
   -2.3455    0.9109    0.0000 O   0  0  0  0  0  0  0  0  0  0  0  0
   -2.4948   -0.5102    0.0000 O   0  0  0  0  0  0  0  0  0  0  0  0
    0.1160    0.6522    0.0000 C   0  0  0  0  0  0  0  0  0  0  0  0
    0.6009   -0.0153    0.0000 N   0  0  0  0  0  0  0  0  0  0  0  0
    0.3460   -0.7999    0.0000 C   0  0  0  0  0  0  0  0  0  0  0  0
   -0.4610   -0.9714    0.0000 C   0  0  0  0  0  0  0  0  0  0  0  0
   -1.0130   -0.3583    0.0000 C   0  0  0  0  0  0  0  0  0  0  0  0
   -1.8200   -0.5298    0.0000 C   0  0  0  0  0  0  0  0  0  0  0  0
   -2.0749   -1.3145    0.0000 C   0  0  0  0  0  0  0  0  0  0  0  0
   -2.8819   -1.4860    0.0000 Cl  0  0  0  0  0  0  0  0  0  0  0  0
   -1.5229   -1.9276    0.0000 C   0  0  0  0  0  0  0  0  0  0  0  0
   -0.7159   -1.7560    0.0000 C   0  0  0  0  0  0  0  0  0  0  0  0
    1.3855    0.2397    0.0000 C   0  0  0  0  0  0  0  0  0  0  0  0
  1  2  1  0  0  0  0
  2  3  1  0  0  0  0
  2  4  1  0  0  0  0
  4  5  2  0  0  0  0
  5  6  1  0  0  0  0
  6  7  2  0  0  0  0
  7  8  1  0  0  0  0
  8  9  1  0  0  0  0
  9 10  1  0  0  0  0
 10 11  1  0  0  0  0
 11 12  1  0  0  0  0
 12 13  1  0  0  0  0
 13 14  1  0  0  0  0
 14 15  1  0  0  0  0
 15 16  2  0  0  0  0
 15 17  1  0  0  0  0
 13 18  1  0  0  0  0
  9 18  2  0  0  0  0
 18 19  1  0  0  0  0
 19 20  1  0  0  0  0
 20 21  1  0  0  0  0
 21 22  1  0  0  0  0
 22 23  2  0  0  0  0
 23 24  1  0  0  0  0
 24 25  1  0  0  0  0
 24 26  2  0  0  0  0
 26 27  1  0  0  0  0
 21 27  2  0  0  0  0
 19 28  1  0  0  0  0
  4 28  1  0  0  0  0
  8 28  2  0  0  0  0
M  END
>  <Name>
CHEMBL267820

>  <Target_Uniprot>
P21731

>  <CHEMBL Canonical SMILES>
CC(C)c1cccc2c3CCCC(CC(=O)O)c3n(Cc4ccc(Cl)cc4)c12

>  <PubMed ID>
16529930

$$$$

  Marvin  08031817322D          

 34 37  0  0  0  0            999 V2000
    4.7330    1.2978    0.0000 O   0  0  0  0  0  0  0  0  0  0  0  0
    4.0185    1.7103    0.0000 C   0  0  0  0  0  0  0  0  0  0  0  0
    4.0185    2.5353    0.0000 O   0  0  0  0  0  0  0  0  0  0  0  0
    3.3040    1.2978    0.0000 C   0  0  0  0  0  0  0  0  0  0  0  0
    3.3040    0.4728    0.0000 C   0  0  0  0  0  0  0  0  0  0  0  0
    2.5896    0.0603    0.0000 C   0  0  0  0  0  0  0  0  0  0  0  0
    2.5896   -0.7647    0.0000 C   0  0  0  0  0  0  0  0  0  0  0  0
    1.8751   -1.1772    0.0000 C   0  0  0  0  0  0  0  0  0  0  0  0
    1.8751   -2.0022    0.0000 C   0  0  0  0  0  0  0  0  0  0  0  0
    1.1606   -2.4147    0.0000 C   0  0  0  0  0  0  0  0  0  0  0  0
    1.1606   -3.2397    0.0000 C   0  0  0  0  0  0  0  0  0  0  0  0
    1.8751   -3.6522    0.0000 C   0  0  0  0  0  0  0  0  0  0  0  0
    2.5896   -3.2397    0.0000 N   0  0  0  0  0  0  0  0  0  0  0  0
    2.5896   -2.4147    0.0000 C   0  0  0  0  0  0  0  0  0  0  0  0
    1.1606   -0.7647    0.0000 C   0  0  0  0  0  0  0  0  0  0  0  0
    1.1606    0.0603    0.0000 C   0  0  0  0  0  0  0  0  0  0  0  0
    0.4462    0.4728    0.0000 C   0  0  0  0  0  0  0  0  0  0  0  0
   -0.2683    0.0603    0.0000 C   0  0  0  0  0  0  0  0  0  0  0  0
   -1.0529    0.3152    0.0000 C   0  0  0  0  0  0  0  0  0  0  0  0
   -1.5378   -0.3522    0.0000 C   0  0  0  0  0  0  0  0  0  0  0  0
   -1.0529   -1.0197    0.0000 C   0  0  0  0  0  0  0  0  0  0  0  0
   -0.2683   -0.7647    0.0000 C   0  0  0  0  0  0  0  0  0  0  0  0
    0.4462   -1.1772    0.0000 C   0  0  0  0  0  0  0  0  0  0  0  0
   -2.3628   -0.3522    0.0000 N   0  0  0  0  0  0  0  0  0  0  0  0
   -2.7753    0.3622    0.0000 S   0  0  0  0  0  0  0  0  0  0  0  0
   -3.4898   -0.0503    0.0000 O   0  0  0  0  0  0  0  0  0  0  0  0
   -2.0609    0.7747    0.0000 O   0  0  0  0  0  0  0  0  0  0  0  0
   -3.1878    1.0767    0.0000 C   0  0  0  0  0  0  0  0  0  0  0  0
   -2.7753    1.7912    0.0000 C   0  0  0  0  0  0  0  0  0  0  0  0
   -3.1878    2.5056    0.0000 C   0  0  0  0  0  0  0  0  0  0  0  0
   -4.0128    2.5056    0.0000 C   0  0  0  0  0  0  0  0  0  0  0  0
   -4.4253    3.2201    0.0000 F   0  0  0  0  0  0  0  0  0  0  0  0
   -4.4253    1.7912    0.0000 C   0  0  0  0  0  0  0  0  0  0  0  0
   -4.0128    1.0767    0.0000 C   0  0  0  0  0  0  0  0  0  0  0  0
  1  2  1  0  0  0  0
  2  3  2  0  0  0  0
  2  4  1  0  0  0  0
  4  5  1  0  0  0  0
  5  6  1  0  0  0  0
  6  7  1  0  0  0  0
  7  8  2  0  0  0  0
  8  9  1  0  0  0  0
  9 10  1  0  0  0  0
 10 11  2  0  0  0  0
 11 12  1  0  0  0  0
 12 13  2  0  0  0  0
 13 14  1  0  0  0  0
  9 14  2  0  0  0  0
  8 15  1  0  0  0  0
 15 16  1  0  0  0  0
 16 17  2  0  0  0  0
 17 18  1  0  0  0  0
 18 19  1  0  0  0  0
 19 20  1  0  0  0  0
 20 21  1  0  0  0  0
 21 22  1  0  0  0  0
 18 22  2  0  0  0  0
 22 23  1  0  0  0  0
 15 23  2  0  0  0  0
 20 24  1  0  0  0  0
 24 25  1  0  0  0  0
 25 26  2  0  0  0  0
 25 27  2  0  0  0  0
 25 28  1  0  0  0  0
 28 29  1  0  0  0  0
 29 30  2  0  0  0  0
 30 31  1  0  0  0  0
 31 32  1  0  0  0  0
 31 33  2  0  0  0  0
 33 34  1  0  0  0  0
 28 34  2  0  0  0  0
M  END
>  <Name>
CHEMBL338420

>  <Target_Uniprot>
P21731

>  <CHEMBL Canonical SMILES>
OC(=O)CCC\C=C(\c1cccnc1)/c2ccc3CC(Cc3c2)NS(=O)(=O)c4ccc(F)cc4

>  <PubMed ID>
8289199

$$$$

  Marvin  08031817322D          

 32 33  0  0  0  0            999 V2000
   -6.9276   -5.0493    0.0000 C   0  0  0  0  0  0  0  0  0  0  0  0
   -6.1251   -4.8580    0.0000 C   0  0  0  0  0  0  0  0  0  0  0  0
   -5.7539   -4.1212    0.0000 C   0  0  0  0  0  0  0  0  0  0  0  0
   -4.9668   -3.8740    0.0000 C   0  0  0  0  0  0  0  0  0  0  0  0
   -4.6642   -3.1065    0.0000 C   0  0  0  0  0  0  0  0  0  0  0  0
   -3.8673   -2.8933    0.0000 C   0  0  0  0  0  0  0  0  0  0  0  0
   -3.5617   -2.1270    0.0000 C   0  0  0  0  0  0  0  0  0  0  0  0
   -2.7711   -1.8912    0.0000 C   0  0  0  0  0  0  0  0  0  0  0  0
   -2.6066   -1.0828    0.0000 C   0  0  0  0  0  0  0  0  0  0  0  0
   -3.1726   -0.4826    0.0000 O   0  0  0  0  0  0  0  0  0  0  0  0
   -1.7879   -0.9808    0.0000 N   0  0  0  0  0  0  0  0  0  0  0  0
   -1.4274   -0.2391    0.0000 C   0  0  0  0  0  0  0  0  0  0  0  0
   -0.6143   -0.1202    0.0000 C   0  0  0  0  0  0  0  0  0  0  0  0
   -0.0654   -0.7301    0.0000 O   0  0  0  0  0  0  0  0  0  0  0  0
   -0.4312    0.6704    0.0000 N   0  0  0  0  0  0  0  0  0  0  0  0
    0.3430    0.9160    0.0000 C   0  0  0  0  0  0  0  0  0  0  0  0
    0.6842    1.6618    0.0000 C   0  0  0  0  0  0  0  0  0  0  0  0
    1.4414    1.9684    0.0000 C   0  0  0  0  0  0  0  0  0  0  0  0
    2.0808    1.4606    0.0000 C   0  0  0  0  0  0  0  0  0  0  0  0
    2.8213    1.7749    0.0000 C   0  0  0  0  0  0  0  0  0  0  0  0
    3.5059    1.3403    0.0000 C   0  0  0  0  0  0  0  0  0  0  0  0
    4.2788    1.6161    0.0000 C   0  0  0  0  0  0  0  0  0  0  0  0
    4.9905    1.1997    0.0000 C   0  0  0  0  0  0  0  0  0  0  0  0
    5.7838    1.4260    0.0000 C   0  0  0  0  0  0  0  0  0  0  0  0
    6.4567    0.9487    0.0000 C   0  0  0  0  0  0  0  0  0  0  0  0
    6.2591    0.1477    0.0000 O   0  0  0  0  0  0  0  0  0  0  0  0
    7.1614    1.3778    0.0000 O   0  0  0  0  0  0  0  0  0  0  0  0
    1.3325    2.8531    0.0000 C   0  0  0  0  0  0  0  0  0  0  0  0
    0.8230    3.6303    0.0000 C   0  0  0  0  0  0  0  0  0  0  0  0
   -0.0012    3.3065    0.0000 C   0  0  0  0  0  0  0  0  0  0  0  0
    0.1514    2.3821    0.0000 C   0  0  0  0  0  0  0  0  0  0  0  0
    0.6304    2.8761    0.0000 O   0  0  0  0  0  0  0  0  0  0  0  0
  1  2  1  0  0  0  0
  2  3  1  0  0  0  0
  3  4  1  0  0  0  0
  4  5  1  0  0  0  0
  5  6  1  0  0  0  0
  6  7  1  0  0  0  0
  7  8  1  0  0  0  0
  8  9  1  0  0  0  0
  9 10  2  0  0  0  0
  9 11  1  0  0  0  0
 11 12  1  0  0  0  0
 12 13  1  0  0  0  0
 13 14  2  0  0  0  0
 13 15  1  0  0  0  0
 15 16  1  0  0  0  0
 16 17  1  0  0  0  0
 17 18  1  0  0  0  0
 18 19  1  0  0  0  0
 19 20  1  0  0  0  0
 20 21  2  0  0  0  0
 21 22  1  0  0  0  0
 22 23  1  0  0  0  0
 23 24  1  0  0  0  0
 24 25  1  0  0  0  0
 25 26  2  0  0  0  0
 25 27  1  0  0  0  0
 18 28  1  0  0  0  0
 28 29  1  0  0  0  0
 29 30  1  0  0  0  0
 30 31  1  0  0  0  0
 17 31  1  0  0  0  0
 31 32  1  0  0  0  0
 28 32  1  0  0  0  0
M  END
>  <Name>
CHEMBL82146

>  <Target_Uniprot>
P21731

>  <CHEMBL Canonical SMILES>
CCCCCCCCC(=O)NCC(=O)NCC1C(C\C=C\CCCC(=O)O)C2CCC1O2

>  <PubMed ID>
2391688

$$$$

  Marvin  08031817322D          

 30 34  0  0  0  0            999 V2000
   -2.2860   -0.2131    0.0000 O   0  0  0  0  0  0  0  0  0  0  0  0
   -2.2120   -1.0347    0.0000 C   0  0  0  0  0  0  0  0  0  0  0  0
   -2.8867   -1.5096    0.0000 O   0  0  0  0  0  0  0  0  0  0  0  0
   -1.4635   -1.3815    0.0000 C   0  0  0  0  0  0  0  0  0  0  0  0
   -1.3895   -2.2032    0.0000 C   0  0  0  0  0  0  0  0  0  0  0  0
   -0.6409   -2.5500    0.0000 C   0  0  0  0  0  0  0  0  0  0  0  0
    0.0337   -2.0751    0.0000 C   0  0  0  0  0  0  0  0  0  0  0  0
    0.7222   -2.5296    0.0000 O   0  0  0  0  0  0  0  0  0  0  0  0
    1.5068   -2.2747    0.0000 C   0  0  0  0  0  0  0  0  0  0  0  0
    1.7967   -1.5023    0.0000 C   0  0  0  0  0  0  0  0  0  0  0  0
    2.6216   -1.4899    0.0000 C   0  0  0  0  0  0  0  0  0  0  0  0
    3.0234   -0.7694    0.0000 C   0  0  0  0  0  0  0  0  0  0  0  0
    2.6002   -0.0612    0.0000 C   0  0  0  0  0  0  0  0  0  0  0  0
    1.7753   -0.0735    0.0000 C   0  0  0  0  0  0  0  0  0  0  0  0
    1.3736   -0.7941    0.0000 C   0  0  0  0  0  0  0  0  0  0  0  0
    0.5560   -0.6833    0.0000 C   0  0  0  0  0  0  0  0  0  0  0  0
    0.3011    0.1013    0.0000 C   0  0  0  0  0  0  0  0  0  0  0  0
    0.8531    0.7144    0.0000 C   0  0  0  0  0  0  0  0  0  0  0  0
    0.5982    1.4990    0.0000 N   0  0  0  0  0  0  0  0  0  0  0  0
    1.0831    2.1665    0.0000 C   0  0  0  0  0  0  0  0  0  0  0  0
    0.5982    2.8339    0.0000 N   0  0  0  0  0  0  0  0  0  0  0  0
   -0.1864    2.5790    0.0000 C   0  0  0  0  0  0  0  0  0  0  0  0
   -0.9009    2.9915    0.0000 C   0  0  0  0  0  0  0  0  0  0  0  0
   -1.6154    2.5790    0.0000 C   0  0  0  0  0  0  0  0  0  0  0  0
   -2.3299    2.9915    0.0000 F   0  0  0  0  0  0  0  0  0  0  0  0
   -1.6154    1.7540    0.0000 C   0  0  0  0  0  0  0  0  0  0  0  0
   -0.9009    1.3415    0.0000 C   0  0  0  0  0  0  0  0  0  0  0  0
   -0.1864    1.7540    0.0000 C   0  0  0  0  0  0  0  0  0  0  0  0
   -0.0403   -1.2534    0.0000 C   0  0  0  0  0  0  0  0  0  0  0  0
   -0.7889   -0.9066    0.0000 C   0  0  0  0  0  0  0  0  0  0  0  0
  1  2  1  0  0  0  0
  2  3  2  0  0  0  0
  2  4  1  0  0  0  0
  4  5  1  0  0  0  0
  5  6  2  0  0  0  0
  6  7  1  0  0  0  0
  7  8  1  0  0  0  0
  8  9  1  0  0  0  0
  9 10  1  0  0  0  0
 10 11  1  0  0  0  0
 11 12  2  0  0  0  0
 12 13  1  0  0  0  0
 13 14  2  0  0  0  0
 14 15  1  0  0  0  0
 10 15  2  0  0  0  0
 15 16  1  0  0  0  0
 16 17  2  0  0  0  0
 17 18  1  0  0  0  0
 18 19  1  0  0  0  0
 19 20  1  0  0  0  0
 20 21  2  0  0  0  0
 21 22  1  0  0  0  0
 22 23  1  0  0  0  0
 23 24  2  0  0  0  0
 24 25  1  0  0  0  0
 24 26  1  0  0  0  0
 26 27  2  0  0  0  0
 27 28  1  0  0  0  0
 19 28  1  0  0  0  0
 22 28  2  0  0  0  0
 16 29  1  0  0  0  0
  7 29  2  0  0  0  0
 29 30  1  0  0  0  0
  4 30  2  0  0  0  0
M  END
>  <Name>
CHEMBL432602

>  <Target_Uniprot>
P21731

>  <CHEMBL Canonical SMILES>
OC(=O)c1ccc2OCc3ccccc3\C(=C/Cn4cnc5cc(F)ccc45)\c2c1

>  <PubMed ID>
1388208

$$$$

  Marvin  08031817322D          

 37 40  0  0  0  0            999 V2000
   -4.7567   -1.1959    0.0000 O   0  0  0  0  0  0  0  0  0  0  0  0
   -4.2047   -1.8090    0.0000 C   0  0  0  0  0  0  0  0  0  0  0  0
   -4.4597   -2.5937    0.0000 O   0  0  0  0  0  0  0  0  0  0  0  0
   -3.3977   -1.6375    0.0000 C   0  0  0  0  0  0  0  0  0  0  0  0
   -3.1428   -0.8529    0.0000 C   0  0  0  0  0  0  0  0  0  0  0  0
   -2.3358   -0.6814    0.0000 C   0  0  0  0  0  0  0  0  0  0  0  0
   -1.7838   -1.2945    0.0000 C   0  0  0  0  0  0  0  0  0  0  0  0
   -0.9768   -1.1229    0.0000 C   0  0  0  0  0  0  0  0  0  0  0  0
   -0.7219   -0.3383    0.0000 C   0  0  0  0  0  0  0  0  0  0  0  0
   -1.2739    0.2748    0.0000 C   0  0  0  0  0  0  0  0  0  0  0  0
   -2.0809    0.1033    0.0000 C   0  0  0  0  0  0  0  0  0  0  0  0
   -2.6329    0.7163    0.0000 C   0  0  0  0  0  0  0  0  0  0  0  0
   -3.4399    0.5448    0.0000 O   0  0  0  0  0  0  0  0  0  0  0  0
   -2.3780    1.5010    0.0000 N   0  0  0  0  0  0  0  0  0  0  0  0
   -1.5934    1.7559    0.0000 C   0  0  0  0  0  0  0  0  0  0  0  0
   -1.5934    2.5809    0.0000 C   0  0  0  0  0  0  0  0  0  0  0  0
   -2.3780    2.8358    0.0000 C   0  0  0  0  0  0  0  0  0  0  0  0
   -2.8629    2.1684    0.0000 C   0  0  0  0  0  0  0  0  0  0  0  0
   -3.6879    2.1684    0.0000 O   0  0  0  0  0  0  0  0  0  0  0  0
   -0.9259    1.2710    0.0000 C   0  0  0  0  0  0  0  0  0  0  0  0
   -0.9259    0.4460    0.0000 O   0  0  0  0  0  0  0  0  0  0  0  0
   -0.1413    0.1910    0.0000 C   0  0  0  0  0  0  0  0  0  0  0  0
    0.3436    0.8585    0.0000 C   0  0  0  0  0  0  0  0  0  0  0  0
   -0.1413    1.5259    0.0000 N   0  0  0  0  0  0  0  0  0  0  0  0
    1.1686    0.8585    0.0000 C   0  0  0  0  0  0  0  0  0  0  0  0
    1.5811    1.5730    0.0000 O   0  0  0  0  0  0  0  0  0  0  0  0
    1.5811    0.1440    0.0000 N   0  0  0  0  0  0  0  0  0  0  0  0
    2.4061    0.1440    0.0000 C   0  0  0  0  0  0  0  0  0  0  0  0
    2.8186   -0.5705    0.0000 C   0  0  0  0  0  0  0  0  0  0  0  0
    3.6436   -0.5705    0.0000 C   0  0  0  0  0  0  0  0  0  0  0  0
    4.0561   -1.2849    0.0000 C   0  0  0  0  0  0  0  0  0  0  0  0
    4.8811   -1.2849    0.0000 C   0  0  0  0  0  0  0  0  0  0  0  0
    5.2936   -1.9994    0.0000 C   0  0  0  0  0  0  0  0  0  0  0  0
    6.1186   -1.9994    0.0000 C   0  0  0  0  0  0  0  0  0  0  0  0
    6.5311   -1.2849    0.0000 C   0  0  0  0  0  0  0  0  0  0  0  0
    6.1186   -0.5705    0.0000 C   0  0  0  0  0  0  0  0  0  0  0  0
    5.2936   -0.5705    0.0000 C   0  0  0  0  0  0  0  0  0  0  0  0
  1  2  1  0  0  0  0
  2  3  2  0  0  0  0
  2  4  1  0  0  0  0
  4  5  1  0  0  0  0
  5  6  1  0  0  0  0
  6  7  1  0  0  0  0
  7  8  2  0  0  0  0
  8  9  1  0  0  0  0
  9 10  2  0  0  0  0
 10 11  1  0  0  0  0
  6 11  2  0  0  0  0
 11 12  1  0  0  0  0
 12 13  2  0  0  0  0
 12 14  1  0  0  0  0
 14 15  1  0  0  0  0
 15 16  1  0  0  0  0
 16 17  1  0  0  0  0
 17 18  1  0  0  0  0
 14 18  1  0  0  0  0
 18 19  2  0  0  0  0
 15 20  1  0  0  0  0
 20 21  1  0  0  0  0
 21 22  1  0  0  0  0
 22 23  2  0  0  0  0
 23 24  1  0  0  0  0
 20 24  2  0  0  0  0
 23 25  1  0  0  0  0
 25 26  2  0  0  0  0
 25 27  1  0  0  0  0
 27 28  1  0  0  0  0
 28 29  1  0  0  0  0
 29 30  1  0  0  0  0
 30 31  1  0  0  0  0
 31 32  1  0  0  0  0
 32 33  1  0  0  0  0
 33 34  1  0  0  0  0
 34 35  1  0  0  0  0
 35 36  1  0  0  0  0
 36 37  1  0  0  0  0
 32 37  1  0  0  0  0
M  END
>  <Name>
CHEMBL2115542

>  <Target_Uniprot>
P21731

>  <CHEMBL Canonical SMILES>
OC(=O)CCc1ccccc1C(=O)N2C(CCC2=O)c3occ(n3)C(=O)NCCCCC4CCCCC4

$$$$

  Marvin  08031817322D          

 35 38  0  0  0  0            999 V2000
   -1.1213    0.8602    0.0000 O   0  0  0  0  0  0  0  0  0  0  0  0
   -1.9283    0.6887    0.0000 C   0  0  0  0  0  0  0  0  0  0  0  0
   -2.4803    1.3018    0.0000 O   0  0  0  0  0  0  0  0  0  0  0  0
   -2.1832   -0.0959    0.0000 C   0  0  0  0  0  0  0  0  0  0  0  0
   -1.6312   -0.7090    0.0000 C   0  0  0  0  0  0  0  0  0  0  0  0
   -1.8862   -1.4936    0.0000 C   0  0  0  0  0  0  0  0  0  0  0  0
   -2.6931   -1.6652    0.0000 C   0  0  0  0  0  0  0  0  0  0  0  0
   -2.9481   -2.4498    0.0000 C   0  0  0  0  0  0  0  0  0  0  0  0
   -2.3960   -3.0629    0.0000 C   0  0  0  0  0  0  0  0  0  0  0  0
   -1.5891   -2.8914    0.0000 C   0  0  0  0  0  0  0  0  0  0  0  0
   -1.3341   -2.1067    0.0000 C   0  0  0  0  0  0  0  0  0  0  0  0
   -0.5272   -1.9352    0.0000 C   0  0  0  0  0  0  0  0  0  0  0  0
    0.0249   -2.5483    0.0000 C   0  0  0  0  0  0  0  0  0  0  0  0
   -0.2301   -3.3329    0.0000 C   0  0  0  0  0  0  0  0  0  0  0  0
    0.3220   -3.9460    0.0000 O   0  0  0  0  0  0  0  0  0  0  0  0
    1.1289   -3.7745    0.0000 C   0  0  0  0  0  0  0  0  0  0  0  0
    1.3839   -2.9899    0.0000 O   0  0  0  0  0  0  0  0  0  0  0  0
    0.8319   -2.3768    0.0000 C   0  0  0  0  0  0  0  0  0  0  0  0
    1.0868   -1.5922    0.0000 C   0  0  0  0  0  0  0  0  0  0  0  0
    1.8714   -1.3372    0.0000 O   0  0  0  0  0  0  0  0  0  0  0  0
    1.8714   -0.5122    0.0000 C   0  0  0  0  0  0  0  0  0  0  0  0
    1.0868   -0.2573    0.0000 C   0  0  0  0  0  0  0  0  0  0  0  0
    0.6019   -0.9247    0.0000 N   0  0  0  0  0  0  0  0  0  0  0  0
    0.8319    0.5273    0.0000 C   0  0  0  0  0  0  0  0  0  0  0  0
    0.0249    0.6989    0.0000 O   0  0  0  0  0  0  0  0  0  0  0  0
    1.3839    1.1404    0.0000 N   0  0  0  0  0  0  0  0  0  0  0  0
    1.1289    1.9251    0.0000 C   0  0  0  0  0  0  0  0  0  0  0  0
    1.6810    2.5382    0.0000 C   0  0  0  0  0  0  0  0  0  0  0  0
    1.4260    3.3228    0.0000 C   0  0  0  0  0  0  0  0  0  0  0  0
    1.9781    3.9359    0.0000 C   0  0  0  0  0  0  0  0  0  0  0  0
    1.7231    4.7205    0.0000 C   0  0  0  0  0  0  0  0  0  0  0  0
    0.9162    4.8920    0.0000 C   0  0  0  0  0  0  0  0  0  0  0  0
    0.6612    5.6766    0.0000 Cl  0  0  0  0  0  0  0  0  0  0  0  0
    0.3641    4.2789    0.0000 C   0  0  0  0  0  0  0  0  0  0  0  0
    0.6191    3.4943    0.0000 C   0  0  0  0  0  0  0  0  0  0  0  0
  1  2  1  0  0  0  0
  2  3  2  0  0  0  0
  2  4  1  0  0  0  0
  4  5  1  0  0  0  0
  5  6  1  0  0  0  0
  6  7  1  0  0  0  0
  7  8  2  0  0  0  0
  8  9  1  0  0  0  0
  9 10  2  0  0  0  0
 10 11  1  0  0  0  0
  6 11  2  0  0  0  0
 11 12  1  0  0  0  0
 12 13  1  0  0  0  0
 13 14  1  0  0  0  0
 14 15  1  0  0  0  0
 15 16  1  0  0  0  0
 16 17  1  0  0  0  0
 17 18  1  0  0  0  0
 13 18  1  0  0  0  0
 18 19  1  0  0  0  0
 19 20  1  0  0  0  0
 20 21  1  0  0  0  0
 21 22  2  0  0  0  0
 22 23  1  0  0  0  0
 19 23  2  0  0  0  0
 22 24  1  0  0  0  0
 24 25  2  0  0  0  0
 24 26  1  0  0  0  0
 26 27  1  0  0  0  0
 27 28  1  0  0  0  0
 28 29  1  0  0  0  0
 29 30  1  0  0  0  0
 30 31  2  0  0  0  0
 31 32  1  0  0  0  0
 32 33  1  0  0  0  0
 32 34  2  0  0  0  0
 34 35  1  0  0  0  0
 29 35  2  0  0  0  0
M  END
>  <Name>
CHEMBL280890

>  <Target_Uniprot>
P21731

>  <CHEMBL Canonical SMILES>
OC(=O)CCc1ccccc1CC2COCOC2c3occ(n3)C(=O)NCCc4ccc(Cl)cc4

$$$$

  Marvin  08031817322D          

 26 28  0  0  0  0            999 V2000
    1.0046    1.6170    0.0000 C   0  0  0  0  0  0  0  0  0  0  0  0
    1.7191    1.2045    0.0000 C   0  0  0  0  0  0  0  0  0  0  0  0
    2.4336    0.7920    0.0000 C   0  0  0  0  0  0  0  0  0  0  0  0
    2.1316    1.9190    0.0000 C   0  0  0  0  0  0  0  0  0  0  0  0
    2.9566    1.9190    0.0000 C   0  0  0  0  0  0  0  0  0  0  0  0
    3.3691    1.2045    0.0000 O   0  0  0  0  0  0  0  0  0  0  0  0
    3.3691    2.6335    0.0000 O   0  0  0  0  0  0  0  0  0  0  0  0
    1.3066    0.4901    0.0000 C   0  0  0  0  0  0  0  0  0  0  0  0
    0.4816    0.4901    0.0000 C   0  0  0  0  0  0  0  0  0  0  0  0
   -0.0033    1.1575    0.0000 N   0  0  0  0  0  0  0  0  0  0  0  0
   -0.7879    0.9026    0.0000 C   0  0  0  0  0  0  0  0  0  0  0  0
   -1.5024    1.3151    0.0000 C   0  0  0  0  0  0  0  0  0  0  0  0
   -2.2169    0.9026    0.0000 C   0  0  0  0  0  0  0  0  0  0  0  0
   -2.9314    1.3151    0.0000 F   0  0  0  0  0  0  0  0  0  0  0  0
   -2.2169    0.0776    0.0000 C   0  0  0  0  0  0  0  0  0  0  0  0
   -1.5024   -0.3349    0.0000 C   0  0  0  0  0  0  0  0  0  0  0  0
   -0.7879    0.0776    0.0000 C   0  0  0  0  0  0  0  0  0  0  0  0
   -0.0033   -0.1774    0.0000 N   0  0  0  0  0  0  0  0  0  0  0  0
    0.2516   -0.9620    0.0000 C   0  0  0  0  0  0  0  0  0  0  0  0
   -0.3004   -1.5751    0.0000 C   0  0  0  0  0  0  0  0  0  0  0  0
   -1.1074   -1.4036    0.0000 C   0  0  0  0  0  0  0  0  0  0  0  0
   -1.6594   -2.0167    0.0000 C   0  0  0  0  0  0  0  0  0  0  0  0
   -1.4045   -2.8013    0.0000 C   0  0  0  0  0  0  0  0  0  0  0  0
   -1.9565   -3.4144    0.0000 Cl  0  0  0  0  0  0  0  0  0  0  0  0
   -0.5975   -2.9728    0.0000 C   0  0  0  0  0  0  0  0  0  0  0  0
   -0.0455   -2.3597    0.0000 C   0  0  0  0  0  0  0  0  0  0  0  0
  1  2  1  0  0  0  0
  2  3  1  0  0  0  0
  2  4  1  0  0  0  0
  4  5  1  0  0  0  0
  5  6  2  0  0  0  0
  5  7  1  0  0  0  0
  2  8  1  0  0  0  0
  8  9  1  0  0  0  0
  9 10  2  0  0  0  0
 10 11  1  0  0  0  0
 11 12  1  0  0  0  0
 12 13  2  0  0  0  0
 13 14  1  0  0  0  0
 13 15  1  0  0  0  0
 15 16  2  0  0  0  0
 16 17  1  0  0  0  0
 11 17  2  0  0  0  0
 17 18  1  0  0  0  0
  9 18  1  0  0  0  0
 18 19  1  0  0  0  0
 19 20  1  0  0  0  0
 20 21  1  0  0  0  0
 21 22  2  0  0  0  0
 22 23  1  0  0  0  0
 23 24  1  0  0  0  0
 23 25  2  0  0  0  0
 25 26  1  0  0  0  0
 20 26  2  0  0  0  0
M  END
>  <Name>
CHEMBL278653

>  <Target_Uniprot>
P21731

>  <CHEMBL Canonical SMILES>
CC(C)(CC(=O)O)Cc1nc2cc(F)ccc2n1Cc3ccc(Cl)cc3

>  <PubMed ID>
8487256

$$$$

  Marvin  08031817322D          

 32 35  0  0  0  0            999 V2000
    3.1402    0.8103    0.0000 O   0  0  0  0  0  0  0  0  0  0  0  0
    3.1402    1.6353    0.0000 C   0  0  0  0  0  0  0  0  0  0  0  0
    3.8547    2.0478    0.0000 O   0  0  0  0  0  0  0  0  0  0  0  0
    2.4257    2.0478    0.0000 C   0  0  0  0  0  0  0  0  0  0  0  0
    2.4257    2.8728    0.0000 C   0  0  0  0  0  0  0  0  0  0  0  0
    1.7113    3.2853    0.0000 C   0  0  0  0  0  0  0  0  0  0  0  0
    0.9968    2.8728    0.0000 C   0  0  0  0  0  0  0  0  0  0  0  0
    0.3518    3.3872    0.0000 O   0  0  0  0  0  0  0  0  0  0  0  0
   -0.4525    3.2036    0.0000 C   0  0  0  0  0  0  0  0  0  0  0  0
   -0.8105    2.4603    0.0000 C   0  0  0  0  0  0  0  0  0  0  0  0
   -1.6332    2.5219    0.0000 C   0  0  0  0  0  0  0  0  0  0  0  0
   -2.0979    1.8403    0.0000 C   0  0  0  0  0  0  0  0  0  0  0  0
   -1.7400    1.0970    0.0000 C   0  0  0  0  0  0  0  0  0  0  0  0
   -0.9173    1.0353    0.0000 C   0  0  0  0  0  0  0  0  0  0  0  0
   -0.4525    1.7170    0.0000 C   0  0  0  0  0  0  0  0  0  0  0  0
    0.3518    1.5334    0.0000 C   0  0  0  0  0  0  0  0  0  0  0  0
    0.5354    0.7291    0.0000 S   0  0  0  0  0  0  0  0  0  0  0  0
   -0.0694    0.1680    0.0000 C   0  0  0  0  0  0  0  0  0  0  0  0
    0.1142   -0.6364    0.0000 C   0  0  0  0  0  0  0  0  0  0  0  0
   -0.4906   -1.1975    0.0000 N   0  0  0  0  0  0  0  0  0  0  0  0
   -0.3070   -2.0018    0.0000 C   0  0  0  0  0  0  0  0  0  0  0  0
    0.4813   -2.2450    0.0000 O   0  0  0  0  0  0  0  0  0  0  0  0
   -0.9118   -2.5630    0.0000 O   0  0  0  0  0  0  0  0  0  0  0  0
   -0.7282   -3.3673    0.0000 C   0  0  0  0  0  0  0  0  0  0  0  0
   -1.3330   -3.9284    0.0000 C   0  0  0  0  0  0  0  0  0  0  0  0
   -2.1213   -3.6852    0.0000 C   0  0  0  0  0  0  0  0  0  0  0  0
   -2.7261   -4.2464    0.0000 C   0  0  0  0  0  0  0  0  0  0  0  0
   -2.5425   -5.0507    0.0000 C   0  0  0  0  0  0  0  0  0  0  0  0
   -1.7542   -5.2939    0.0000 C   0  0  0  0  0  0  0  0  0  0  0  0
   -1.1494   -4.7327    0.0000 C   0  0  0  0  0  0  0  0  0  0  0  0
    0.9968    2.0478    0.0000 C   0  0  0  0  0  0  0  0  0  0  0  0
    1.7113    1.6353    0.0000 C   0  0  0  0  0  0  0  0  0  0  0  0
  1  2  1  0  0  0  0
  2  3  2  0  0  0  0
  2  4  1  0  0  0  0
  4  5  1  0  0  0  0
  5  6  2  0  0  0  0
  6  7  1  0  0  0  0
  7  8  1  0  0  0  0
  8  9  1  0  0  0  0
  9 10  1  0  0  0  0
 10 11  1  0  0  0  0
 11 12  2  0  0  0  0
 12 13  1  0  0  0  0
 13 14  2  0  0  0  0
 14 15  1  0  0  0  0
 10 15  2  0  0  0  0
 15 16  1  0  0  0  0
 16 17  1  0  0  0  0
 17 18  1  0  0  0  0
 18 19  1  0  0  0  0
 19 20  1  0  0  0  0
 20 21  1  0  0  0  0
 21 22  2  0  0  0  0
 21 23  1  0  0  0  0
 23 24  1  0  0  0  0
 24 25  1  0  0  0  0
 25 26  1  0  0  0  0
 26 27  2  0  0  0  0
 27 28  1  0  0  0  0
 28 29  2  0  0  0  0
 29 30  1  0  0  0  0
 25 30  2  0  0  0  0
 16 31  1  0  0  0  0
  7 31  2  0  0  0  0
 31 32  1  0  0  0  0
  4 32  2  0  0  0  0
M  END
>  <Name>
CHEMBL114473

>  <Target_Uniprot>
P21731

>  <CHEMBL Canonical SMILES>
OC(=O)c1ccc2OCc3ccccc3C(SCCNC(=O)OCc4ccccc4)c2c1

>  <PubMed ID>
1388207

$$$$

  Marvin  08031817322D          

 27 30  0  0  0  0            999 V2000
    2.8658   -1.4625    0.0000 O   0  0  0  0  0  0  0  0  0  0  0  0
    2.1513   -1.0500    0.0000 C   0  0  0  0  0  0  0  0  0  0  0  0
    2.1513   -0.2250    0.0000 C   0  0  0  0  0  0  0  0  0  0  0  0
    2.8658    0.1875    0.0000 C   0  0  0  0  0  0  0  0  0  0  0  0
    2.8658    1.0125    0.0000 C   0  0  0  0  0  0  0  0  0  0  0  0
    2.1513    1.4250    0.0000 C   0  0  0  0  0  0  0  0  0  0  0  0
    1.4368    1.0125    0.0000 C   0  0  0  0  0  0  0  0  0  0  0  0
    0.6522    1.2674    0.0000 C   0  0  0  0  0  0  0  0  0  0  0  0
    0.3167    2.0211    0.0000 C   0  0  0  0  0  0  0  0  0  0  0  0
   -0.5038    2.1073    0.0000 C   0  0  0  0  0  0  0  0  0  0  0  0
   -0.9887    1.4399    0.0000 C   0  0  0  0  0  0  0  0  0  0  0  0
   -0.6532    0.6862    0.0000 C   0  0  0  0  0  0  0  0  0  0  0  0
   -1.1381    0.0187    0.0000 C   0  0  0  0  0  0  0  0  0  0  0  0
   -1.9586    0.1050    0.0000 C   0  0  0  0  0  0  0  0  0  0  0  0
   -2.2941    0.8587    0.0000 O   0  0  0  0  0  0  0  0  0  0  0  0
   -2.4435   -0.5625    0.0000 O   0  0  0  0  0  0  0  0  0  0  0  0
    0.1673    0.6000    0.0000 C   0  0  0  0  0  0  0  0  0  0  0  0
    0.6522   -0.0675    0.0000 N   0  0  0  0  0  0  0  0  0  0  0  0
    0.3973   -0.8521    0.0000 C   0  0  0  0  0  0  0  0  0  0  0  0
   -0.4097   -1.0236    0.0000 C   0  0  0  0  0  0  0  0  0  0  0  0
   -0.9617   -0.4105    0.0000 C   0  0  0  0  0  0  0  0  0  0  0  0
   -1.7687   -0.5821    0.0000 C   0  0  0  0  0  0  0  0  0  0  0  0
   -2.0236   -1.3667    0.0000 C   0  0  0  0  0  0  0  0  0  0  0  0
   -2.8306   -1.5382    0.0000 Cl  0  0  0  0  0  0  0  0  0  0  0  0
   -1.4716   -1.9798    0.0000 C   0  0  0  0  0  0  0  0  0  0  0  0
   -0.6646   -1.8083    0.0000 C   0  0  0  0  0  0  0  0  0  0  0  0
    1.4368    0.1875    0.0000 C   0  0  0  0  0  0  0  0  0  0  0  0
  1  2  1  0  0  0  0
  2  3  1  0  0  0  0
  3  4  2  0  0  0  0
  4  5  1  0  0  0  0
  5  6  2  0  0  0  0
  6  7  1  0  0  0  0
  7  8  1  0  0  0  0
  8  9  1  0  0  0  0
  9 10  1  0  0  0  0
 10 11  1  0  0  0  0
 11 12  1  0  0  0  0
 12 13  1  0  0  0  0
 13 14  1  0  0  0  0
 14 15  2  0  0  0  0
 14 16  1  0  0  0  0
 12 17  1  0  0  0  0
  8 17  2  0  0  0  0
 17 18  1  0  0  0  0
 18 19  1  0  0  0  0
 19 20  1  0  0  0  0
 20 21  1  0  0  0  0
 21 22  2  0  0  0  0
 22 23  1  0  0  0  0
 23 24  1  0  0  0  0
 23 25  2  0  0  0  0
 25 26  1  0  0  0  0
 20 26  2  0  0  0  0
 18 27  1  0  0  0  0
  3 27  1  0  0  0  0
  7 27  2  0  0  0  0
M  END
>  <Name>
CHEMBL208596

>  <Target_Uniprot>
P21731

>  <CHEMBL Canonical SMILES>
OCc1cccc2c3CCCC(CC(=O)O)c3n(Cc4ccc(Cl)cc4)c12

>  <PubMed ID>
16529930

$$$$

  Marvin  08031817322D          

 30 34  0  0  0  0            999 V2000
    2.4339   -2.0069    0.0000 O   0  0  0  0  0  0  0  0  0  0  0  0
    2.9951   -1.4021    0.0000 C   0  0  0  0  0  0  0  0  0  0  0  0
    3.7994   -1.5857    0.0000 O   0  0  0  0  0  0  0  0  0  0  0  0
    2.7519   -0.6137    0.0000 C   0  0  0  0  0  0  0  0  0  0  0  0
    3.3130   -0.0090    0.0000 C   0  0  0  0  0  0  0  0  0  0  0  0
    3.0699    0.7794    0.0000 C   0  0  0  0  0  0  0  0  0  0  0  0
    2.2656    0.9630    0.0000 C   0  0  0  0  0  0  0  0  0  0  0  0
    2.1426    1.7787    0.0000 O   0  0  0  0  0  0  0  0  0  0  0  0
    1.4281    2.1912    0.0000 C   0  0  0  0  0  0  0  0  0  0  0  0
    0.6602    1.8898    0.0000 C   0  0  0  0  0  0  0  0  0  0  0  0
    0.0990    2.4946    0.0000 C   0  0  0  0  0  0  0  0  0  0  0  0
   -0.7053    2.3110    0.0000 C   0  0  0  0  0  0  0  0  0  0  0  0
   -0.9485    1.5227    0.0000 C   0  0  0  0  0  0  0  0  0  0  0  0
   -0.3873    0.9179    0.0000 C   0  0  0  0  0  0  0  0  0  0  0  0
    0.4170    1.1015    0.0000 C   0  0  0  0  0  0  0  0  0  0  0  0
    0.8817    0.4198    0.0000 C   0  0  0  0  0  0  0  0  0  0  0  0
    0.4692   -0.2946    0.0000 S   0  0  0  0  0  0  0  0  0  0  0  0
   -0.3558   -0.2946    0.0000 C   0  0  0  0  0  0  0  0  0  0  0  0
   -0.7683   -1.0091    0.0000 C   0  0  0  0  0  0  0  0  0  0  0  0
   -1.5933   -1.0091    0.0000 C   0  0  0  0  0  0  0  0  0  0  0  0
   -2.0782   -0.3417    0.0000 N   0  0  0  0  0  0  0  0  0  0  0  0
   -2.8628   -0.5966    0.0000 C   0  0  0  0  0  0  0  0  0  0  0  0
   -3.5773   -0.1841    0.0000 C   0  0  0  0  0  0  0  0  0  0  0  0
   -4.2918   -0.5966    0.0000 C   0  0  0  0  0  0  0  0  0  0  0  0
   -4.2918   -1.4216    0.0000 C   0  0  0  0  0  0  0  0  0  0  0  0
   -3.5773   -1.8341    0.0000 C   0  0  0  0  0  0  0  0  0  0  0  0
   -2.8628   -1.4216    0.0000 C   0  0  0  0  0  0  0  0  0  0  0  0
   -2.0782   -1.6765    0.0000 N   0  0  0  0  0  0  0  0  0  0  0  0
    1.7044    0.3582    0.0000 C   0  0  0  0  0  0  0  0  0  0  0  0
    1.9476   -0.4302    0.0000 C   0  0  0  0  0  0  0  0  0  0  0  0
  1  2  1  0  0  0  0
  2  3  2  0  0  0  0
  2  4  1  0  0  0  0
  4  5  1  0  0  0  0
  5  6  2  0  0  0  0
  6  7  1  0  0  0  0
  7  8  1  0  0  0  0
  8  9  1  0  0  0  0
  9 10  1  0  0  0  0
 10 11  1  0  0  0  0
 11 12  2  0  0  0  0
 12 13  1  0  0  0  0
 13 14  2  0  0  0  0
 14 15  1  0  0  0  0
 10 15  2  0  0  0  0
 15 16  1  0  0  0  0
 16 17  1  0  0  0  0
 17 18  1  0  0  0  0
 18 19  1  0  0  0  0
 19 20  1  0  0  0  0
 20 21  2  0  0  0  0
 21 22  1  0  0  0  0
 22 23  1  0  0  0  0
 23 24  2  0  0  0  0
 24 25  1  0  0  0  0
 25 26  2  0  0  0  0
 26 27  1  0  0  0  0
 22 27  2  0  0  0  0
 27 28  1  0  0  0  0
 20 28  1  0  0  0  0
 16 29  1  0  0  0  0
  7 29  2  0  0  0  0
 29 30  1  0  0  0  0
  4 30  2  0  0  0  0
M  END
>  <Name>
CHEMBL326856

>  <Target_Uniprot>
P21731

>  <CHEMBL Canonical SMILES>
OC(=O)c1ccc2OCc3ccccc3C(SCCc4nc5ccccc5[nH]4)c2c1

>  <PubMed ID>
1388208

$$$$

  Marvin  08031817322D          

 26 27  0  0  0  0            999 V2000
   -0.6046   -2.7606    0.0000 C   0  0  0  0  0  0  0  0  0  0  0  0
   -0.6046   -1.9356    0.0000 C   0  0  0  0  0  0  0  0  0  0  0  0
    0.1099   -1.5231    0.0000 C   0  0  0  0  0  0  0  0  0  0  0  0
    0.8244   -1.9356    0.0000 C   0  0  0  0  0  0  0  0  0  0  0  0
    0.1099   -0.6981    0.0000 C   0  0  0  0  0  0  0  0  0  0  0  0
    0.8244   -0.2856    0.0000 O   0  0  0  0  0  0  0  0  0  0  0  0
   -0.6046   -0.2856    0.0000 C   0  0  0  0  0  0  0  0  0  0  0  0
   -1.3190   -0.6981    0.0000 C   0  0  0  0  0  0  0  0  0  0  0  0
   -2.0335   -0.2856    0.0000 C   0  0  0  0  0  0  0  0  0  0  0  0
   -1.3190   -1.5231    0.0000 C   0  0  0  0  0  0  0  0  0  0  0  0
   -2.0335   -1.9356    0.0000 O   0  0  0  0  0  0  0  0  0  0  0  0
   -0.6046    0.5394    0.0000 C   0  0  0  0  0  0  0  0  0  0  0  0
    0.1099    0.9519    0.0000 C   0  0  0  0  0  0  0  0  0  0  0  0
    0.8244    0.5394    0.0000 C   0  0  0  0  0  0  0  0  0  0  0  0
    1.5389    0.9519    0.0000 C   0  0  0  0  0  0  0  0  0  0  0  0
    2.2533    0.5394    0.0000 C   0  0  0  0  0  0  0  0  0  0  0  0
    2.9678    0.9519    0.0000 C   0  0  0  0  0  0  0  0  0  0  0  0
    3.6823    0.5394    0.0000 C   0  0  0  0  0  0  0  0  0  0  0  0
    3.6823   -0.2856    0.0000 O   0  0  0  0  0  0  0  0  0  0  0  0
    4.3967    0.9519    0.0000 O   0  0  0  0  0  0  0  0  0  0  0  0
   -1.3190    0.9519    0.0000 C   0  0  0  0  0  0  0  0  0  0  0  0
   -1.3190    1.7769    0.0000 C   0  0  0  0  0  0  0  0  0  0  0  0
   -2.0335    2.1894    0.0000 C   0  0  0  0  0  0  0  0  0  0  0  0
   -2.7480    1.7769    0.0000 C   0  0  0  0  0  0  0  0  0  0  0  0
   -2.7480    0.9519    0.0000 C   0  0  0  0  0  0  0  0  0  0  0  0
   -2.0335    0.5394    0.0000 C   0  0  0  0  0  0  0  0  0  0  0  0
  1  2  1  0  0  0  0
  2  3  2  0  0  0  0
  3  4  1  0  0  0  0
  3  5  1  0  0  0  0
  5  6  2  0  0  0  0
  5  7  1  0  0  0  0
  7  8  2  0  0  0  0
  8  9  1  0  0  0  0
  8 10  1  0  0  0  0
  2 10  1  0  0  0  0
 10 11  2  0  0  0  0
  7 12  1  0  0  0  0
 12 13  1  0  0  0  0
 13 14  1  0  0  0  0
 14 15  1  0  0  0  0
 15 16  1  0  0  0  0
 16 17  1  0  0  0  0
 17 18  1  0  0  0  0
 18 19  2  0  0  0  0
 18 20  1  0  0  0  0
 12 21  1  0  0  0  0
 21 22  1  0  0  0  0
 22 23  2  0  0  0  0
 23 24  1  0  0  0  0
 24 25  2  0  0  0  0
 25 26  1  0  0  0  0
 21 26  2  0  0  0  0
M  END
>  <Name>
CHEMBL70972

>  <Target_Uniprot>
P21731

>  <CHEMBL Canonical SMILES>
CC1=C(C)C(=O)C(=C(C)C1=O)C(CCCCCC(=O)O)c2ccccc2

>  <PubMed ID>
2769691

$$$$

  Marvin  08031817322D          

 24 25  0  0  1  0            999 V2000
   -0.2503   -4.6569    0.0000 O   0  0  0  0  0  0  0  0  0  0  0  0
   -0.8023   -4.0438    0.0000 C   0  0  0  0  0  0  0  0  0  0  0  0
   -1.6093   -4.2153    0.0000 O   0  0  0  0  0  0  0  0  0  0  0  0
   -0.5474   -3.2592    0.0000 C   0  0  0  0  0  0  0  0  0  0  0  0
    0.2596   -3.0876    0.0000 C   0  0  0  0  0  0  0  0  0  0  0  0
    0.5145   -2.3030    0.0000 C   0  0  0  0  0  0  0  0  0  0  0  0
    1.3215   -2.1315    0.0000 C   0  0  0  0  0  0  0  0  0  0  0  0
    1.5764   -1.3469    0.0000 C   0  0  0  0  0  0  0  0  0  0  0  0
    1.0244   -0.7338    0.0000 C   0  0  0  0  0  0  0  0  0  0  0  0
    1.2793    0.0508    0.0000 C   0  0  1  0  0  0  0  0  0  0  0  0
    2.0640    0.3058    0.0000 C   0  0  0  0  0  0  0  0  0  0  0  0
    2.0640    1.1308    0.0000 C   0  0  0  0  0  0  0  0  0  0  0  0
    1.2793    1.3857    0.0000 C   0  0  0  0  0  0  0  0  0  0  0  0
    0.7944    0.7183    0.0000 C   0  0  2  0  0  0  0  0  0  0  0  0
   -0.0306    0.7183    0.0000 N   0  0  0  0  0  0  0  0  0  0  0  0
   -0.4431    1.4327    0.0000 S   0  0  0  0  0  0  0  0  0  0  0  0
   -1.1575    1.0202    0.0000 O   0  0  0  0  0  0  0  0  0  0  0  0
    0.2714    1.8452    0.0000 O   0  0  0  0  0  0  0  0  0  0  0  0
   -0.8556    2.1472    0.0000 C   0  0  0  0  0  0  0  0  0  0  0  0
   -0.4431    2.8617    0.0000 C   0  0  0  0  0  0  0  0  0  0  0  0
   -0.8556    3.5762    0.0000 C   0  0  0  0  0  0  0  0  0  0  0  0
   -1.6806    3.5762    0.0000 C   0  0  0  0  0  0  0  0  0  0  0  0
   -2.0931    2.8617    0.0000 C   0  0  0  0  0  0  0  0  0  0  0  0
   -1.6806    2.1472    0.0000 C   0  0  0  0  0  0  0  0  0  0  0  0
  1  2  1  0  0  0  0
  2  3  2  0  0  0  0
  2  4  1  0  0  0  0
  4  5  1  0  0  0  0
  5  6  1  0  0  0  0
  6  7  1  0  0  0  0
  7  8  2  0  0  0  0
  8  9  1  0  0  0  0
 10  9  1  6  0  0  0
 10 11  1  0  0  0  0
 11 12  1  0  0  0  0
 12 13  1  0  0  0  0
 13 14  1  0  0  0  0
 10 14  1  0  0  0  0
 14 15  1  1  0  0  0
 15 16  1  0  0  0  0
 16 17  2  0  0  0  0
 16 18  2  0  0  0  0
 16 19  1  0  0  0  0
 19 20  1  0  0  0  0
 20 21  2  0  0  0  0
 21 22  1  0  0  0  0
 22 23  2  0  0  0  0
 23 24  1  0  0  0  0
 19 24  2  0  0  0  0
M  END
>  <Name>
CHEMBL300681

>  <Target_Uniprot>
P21731

>  <CHEMBL Canonical SMILES>
OC(=O)CCC\C=C/C[C@H]1CCC[C@@H]1NS(=O)(=O)c2ccccc2

$$$$

  Marvin  08031817322D          

 28 31  0  0  0  0            999 V2000
   -1.5305   -1.3292    0.0000 C   0  0  0  0  0  0  0  0  0  0  0  0
   -1.1180   -0.6147    0.0000 C   0  0  0  0  0  0  0  0  0  0  0  0
   -1.8325   -1.0272    0.0000 C   0  0  0  0  0  0  0  0  0  0  0  0
   -1.1180    0.2103    0.0000 C   0  0  0  0  0  0  0  0  0  0  0  0
   -1.8325    0.6228    0.0000 C   0  0  0  0  0  0  0  0  0  0  0  0
   -1.8325    1.4478    0.0000 C   0  0  0  0  0  0  0  0  0  0  0  0
   -1.1180    1.8603    0.0000 N   0  0  0  0  0  0  0  0  0  0  0  0
   -0.4036    1.4478    0.0000 C   0  0  0  0  0  0  0  0  0  0  0  0
   -0.4036    0.6228    0.0000 C   0  0  0  0  0  0  0  0  0  0  0  0
    0.3811    0.3678    0.0000 C   0  0  0  0  0  0  0  0  0  0  0  0
    0.6360   -0.4168    0.0000 S   0  0  0  0  0  0  0  0  0  0  0  0
    0.0840   -1.0299    0.0000 C   0  0  0  0  0  0  0  0  0  0  0  0
   -0.7230   -0.8583    0.0000 C   0  0  0  0  0  0  0  0  0  0  0  0
   -1.2750   -1.4714    0.0000 C   0  0  0  0  0  0  0  0  0  0  0  0
   -1.0201   -2.2561    0.0000 C   0  0  0  0  0  0  0  0  0  0  0  0
   -1.5721   -2.8692    0.0000 Cl  0  0  0  0  0  0  0  0  0  0  0  0
   -0.2131   -2.4276    0.0000 C   0  0  0  0  0  0  0  0  0  0  0  0
    0.3389   -1.8145    0.0000 C   0  0  0  0  0  0  0  0  0  0  0  0
    0.8660    1.0353    0.0000 C   0  0  0  0  0  0  0  0  0  0  0  0
    1.6865    1.1215    0.0000 C   0  0  0  0  0  0  0  0  0  0  0  0
    2.1714    0.4541    0.0000 C   0  0  0  0  0  0  0  0  0  0  0  0
    1.8358   -0.2996    0.0000 C   0  0  0  0  0  0  0  0  0  0  0  0
    1.0154   -0.3858    0.0000 O   0  0  0  0  0  0  0  0  0  0  0  0
    2.3208   -0.9670    0.0000 O   0  0  0  0  0  0  0  0  0  0  0  0
    2.0220    1.8752    0.0000 C   0  0  0  0  0  0  0  0  0  0  0  0
    1.5371    2.5426    0.0000 C   0  0  0  0  0  0  0  0  0  0  0  0
    0.7166    2.4564    0.0000 C   0  0  0  0  0  0  0  0  0  0  0  0
    0.3811    1.7027    0.0000 N   0  0  0  0  0  0  0  0  0  0  0  0
  1  2  1  0  0  0  0
  2  3  1  0  0  0  0
  2  4  1  0  0  0  0
  4  5  1  0  0  0  0
  5  6  2  0  0  0  0
  6  7  1  0  0  0  0
  7  8  2  0  0  0  0
  8  9  1  0  0  0  0
  4  9  2  0  0  0  0
  9 10  1  0  0  0  0
 10 11  1  0  0  0  0
 11 12  1  0  0  0  0
 12 13  1  0  0  0  0
 13 14  2  0  0  0  0
 14 15  1  0  0  0  0
 15 16  1  0  0  0  0
 15 17  2  0  0  0  0
 17 18  1  0  0  0  0
 12 18  2  0  0  0  0
 10 19  2  0  0  0  0
 19 20  1  0  0  0  0
 20 21  1  0  0  0  0
 21 22  1  0  0  0  0
 22 23  2  0  0  0  0
 22 24  1  0  0  0  0
 20 25  1  0  0  0  0
 25 26  1  0  0  0  0
 26 27  1  0  0  0  0
 27 28  1  0  0  0  0
  8 28  1  0  0  0  0
 19 28  1  0  0  0  0
M  END
>  <Name>
CHEMBL509685

>  <Target_Uniprot>
P21731

>  <CHEMBL Canonical SMILES>
CC(C)c1ccnc2c1c(Sc3ccc(Cl)cc3)c4C(CC(=O)O)CCCn24

>  <PubMed ID>
19307115

$$$$

  Marvin  08031817322D          

 27 29  0  0  0  0            999 V2000
   -1.6385   -4.0435    0.0000 C   0  0  0  0  0  0  0  0  0  0  0  0
   -1.8935   -3.2589    0.0000 S   0  0  0  0  0  0  0  0  0  0  0  0
   -1.3415   -2.6458    0.0000 C   0  0  0  0  0  0  0  0  0  0  0  0
   -0.5345   -2.8173    0.0000 C   0  0  0  0  0  0  0  0  0  0  0  0
    0.0176   -2.2042    0.0000 C   0  0  0  0  0  0  0  0  0  0  0  0
   -0.2374   -1.4196    0.0000 C   0  0  0  0  0  0  0  0  0  0  0  0
    0.3146   -0.8065    0.0000 C   0  0  0  0  0  0  0  0  0  0  0  0
    0.0597   -0.0219    0.0000 N   0  0  0  0  0  0  0  0  0  0  0  0
    0.5446    0.6456    0.0000 C   0  0  0  0  0  0  0  0  0  0  0  0
    1.3696    0.6456    0.0000 C   0  0  0  0  0  0  0  0  0  0  0  0
    1.7821    1.3601    0.0000 C   0  0  0  0  0  0  0  0  0  0  0  0
    1.0677    1.7726    0.0000 C   0  0  0  0  0  0  0  0  0  0  0  0
    2.4966    0.9476    0.0000 C   0  0  0  0  0  0  0  0  0  0  0  0
    2.1946    2.0745    0.0000 C   0  0  0  0  0  0  0  0  0  0  0  0
    3.0196    2.0745    0.0000 C   0  0  0  0  0  0  0  0  0  0  0  0
    3.4321    1.3601    0.0000 O   0  0  0  0  0  0  0  0  0  0  0  0
    3.4321    2.7890    0.0000 O   0  0  0  0  0  0  0  0  0  0  0  0
    0.0597    1.3130    0.0000 N   0  0  0  0  0  0  0  0  0  0  0  0
   -0.7249    1.0581    0.0000 C   0  0  0  0  0  0  0  0  0  0  0  0
   -1.4394    1.4706    0.0000 C   0  0  0  0  0  0  0  0  0  0  0  0
   -2.1539    1.0581    0.0000 C   0  0  0  0  0  0  0  0  0  0  0  0
   -2.8683    1.4706    0.0000 Cl  0  0  0  0  0  0  0  0  0  0  0  0
   -2.1539    0.2331    0.0000 C   0  0  0  0  0  0  0  0  0  0  0  0
   -1.4394   -0.1794    0.0000 N   0  0  0  0  0  0  0  0  0  0  0  0
   -0.7249    0.2331    0.0000 C   0  0  0  0  0  0  0  0  0  0  0  0
   -1.0444   -1.2480    0.0000 C   0  0  0  0  0  0  0  0  0  0  0  0
   -1.5964   -1.8611    0.0000 C   0  0  0  0  0  0  0  0  0  0  0  0
  1  2  1  0  0  0  0
  2  3  1  0  0  0  0
  3  4  1  0  0  0  0
  4  5  2  0  0  0  0
  5  6  1  0  0  0  0
  6  7  1  0  0  0  0
  7  8  1  0  0  0  0
  8  9  1  0  0  0  0
  9 10  1  0  0  0  0
 10 11  1  0  0  0  0
 11 12  1  0  0  0  0
 11 13  1  0  0  0  0
 11 14  1  0  0  0  0
 14 15  1  0  0  0  0
 15 16  2  0  0  0  0
 15 17  1  0  0  0  0
  9 18  2  0  0  0  0
 18 19  1  0  0  0  0
 19 20  1  0  0  0  0
 20 21  2  0  0  0  0
 21 22  1  0  0  0  0
 21 23  1  0  0  0  0
 23 24  2  0  0  0  0
 24 25  1  0  0  0  0
  8 25  1  0  0  0  0
 19 25  2  0  0  0  0
  6 26  2  0  0  0  0
 26 27  1  0  0  0  0
  3 27  2  0  0  0  0
M  END
>  <Name>
CHEMBL279348

>  <Target_Uniprot>
P21731

>  <CHEMBL Canonical SMILES>
CSc1ccc(Cn2c(CC(C)(C)CC(=O)O)nc3cc(Cl)cnc23)cc1

>  <PubMed ID>
8487256

$$$$

  Marvin  08031817322D          

 36 40  0  0  0  0            999 V2000
   -0.2213   -1.8547    0.0000 O   0  0  0  0  0  0  0  0  0  0  0  0
    0.2727   -2.5186    0.0000 C   0  0  0  0  0  0  0  0  0  0  0  0
    0.0868   -3.3236    0.0000 O   0  0  0  0  0  0  0  0  0  0  0  0
    1.0638   -2.2923    0.0000 C   0  0  0  0  0  0  0  0  0  0  0  0
    1.4756   -1.5879    0.0000 C   0  0  0  0  0  0  0  0  0  0  0  0
    2.2599   -1.3688    0.0000 C   0  0  0  0  0  0  0  0  0  0  0  0
    2.8116   -1.9844    0.0000 C   0  0  0  0  0  0  0  0  0  0  0  0
    3.6238   -1.8157    0.0000 C   0  0  0  0  0  0  0  0  0  0  0  0
    3.8793   -1.0309    0.0000 C   0  0  0  0  0  0  0  0  0  0  0  0
    3.3233   -0.4163    0.0000 C   0  0  0  0  0  0  0  0  0  0  0  0
    2.5147   -0.5916    0.0000 C   0  0  0  0  0  0  0  0  0  0  0  0
    2.0188    0.0436    0.0000 C   0  0  0  0  0  0  0  0  0  0  0  0
    2.1693    0.8069    0.0000 C   0  0  0  0  0  0  0  0  0  0  0  0
    3.0329    0.9949    0.0000 C   0  0  0  0  0  0  0  0  0  0  0  0
    3.5743    1.8056    0.0000 C   0  0  0  0  0  0  0  0  0  0  0  0
    3.0174    2.5135    0.0000 C   0  0  0  0  0  0  0  0  0  0  0  0
    2.3518    2.0751    0.0000 C   0  0  0  0  0  0  0  0  0  0  0  0
    3.1777    1.5985    0.0000 O   0  0  0  0  0  0  0  0  0  0  0  0
    1.7611    1.5108    0.0000 C   0  0  0  0  0  0  0  0  0  0  0  0
    0.8882    1.4974    0.0000 C   0  0  0  0  0  0  0  0  0  0  0  0
    0.3961    2.1678    0.0000 O   0  0  0  0  0  0  0  0  0  0  0  0
   -0.3903    1.9126    0.0000 C   0  0  0  0  0  0  0  0  0  0  0  0
   -0.3903    1.0875    0.0000 C   0  0  0  0  0  0  0  0  0  0  0  0
    0.3929    0.8287    0.0000 N   0  0  0  0  0  0  0  0  0  0  0  0
   -0.9965    0.5416    0.0000 C   0  0  0  0  0  0  0  0  0  0  0  0
   -0.9825   -0.2775    0.0000 O   0  0  0  0  0  0  0  0  0  0  0  0
   -1.7523    0.8565    0.0000 N   0  0  0  0  0  0  0  0  0  0  0  0
   -2.4923    0.5130    0.0000 C   0  0  0  0  0  0  0  0  0  0  0  0
   -3.2706    0.7169    0.0000 C   0  0  0  0  0  0  0  0  0  0  0  0
   -3.9451    0.2819    0.0000 C   0  0  0  0  0  0  0  0  0  0  0  0
   -4.6954    0.6146    0.0000 C   0  0  0  0  0  0  0  0  0  0  0  0
   -5.3667    0.1282    0.0000 C   0  0  0  0  0  0  0  0  0  0  0  0
   -5.2755   -0.6931    0.0000 C   0  0  0  0  0  0  0  0  0  0  0  0
   -5.9394   -1.1757    0.0000 Cl  0  0  0  0  0  0  0  0  0  0  0  0
   -4.5205   -1.0285    0.0000 C   0  0  0  0  0  0  0  0  0  0  0  0
   -3.8538   -0.5362    0.0000 C   0  0  0  0  0  0  0  0  0  0  0  0
  1  2  1  0  0  0  0
  2  3  2  0  0  0  0
  2  4  1  0  0  0  0
  4  5  1  0  0  0  0
  5  6  1  0  0  0  0
  6  7  1  0  0  0  0
  7  8  2  0  0  0  0
  8  9  1  0  0  0  0
  9 10  2  0  0  0  0
 10 11  1  0  0  0  0
  6 11  2  0  0  0  0
 11 12  1  0  0  0  0
 12 13  1  0  0  0  0
 13 14  1  0  0  0  0
 14 15  1  0  0  0  0
 15 16  1  0  0  0  0
 16 17  1  0  0  0  0
 17 18  1  0  0  0  0
 14 18  1  0  0  0  0
 17 19  1  0  0  0  0
 13 19  1  0  0  0  0
 19 20  1  0  0  0  0
 20 21  1  0  0  0  0
 21 22  1  0  0  0  0
 22 23  2  0  0  0  0
 23 24  1  0  0  0  0
 20 24  2  0  0  0  0
 23 25  1  0  0  0  0
 25 26  2  0  0  0  0
 25 27  1  0  0  0  0
 27 28  1  0  0  0  0
 28 29  1  0  0  0  0
 29 30  1  0  0  0  0
 30 31  1  0  0  0  0
 31 32  2  0  0  0  0
 32 33  1  0  0  0  0
 33 34  1  0  0  0  0
 33 35  2  0  0  0  0
 35 36  1  0  0  0  0
 30 36  2  0  0  0  0
M  END
>  <Name>
CHEMBL278159

>  <Target_Uniprot>
P21731

>  <CHEMBL Canonical SMILES>
OC(=O)CCc1ccccc1CC2C3CCC(O3)C2c4occ(n4)C(=O)NCCc5ccc(Cl)cc5

$$$$

  Marvin  08031817322D          

 32 35  0  0  0  0            999 V2000
    2.8175    0.5021    0.0000 O   0  0  0  0  0  0  0  0  0  0  0  0
    2.8175    1.3271    0.0000 C   0  0  0  0  0  0  0  0  0  0  0  0
    3.5320    1.7396    0.0000 O   0  0  0  0  0  0  0  0  0  0  0  0
    2.1030    1.7396    0.0000 C   0  0  0  0  0  0  0  0  0  0  0  0
    2.1030    2.5646    0.0000 C   0  0  0  0  0  0  0  0  0  0  0  0
    1.3885    2.9771    0.0000 C   0  0  0  0  0  0  0  0  0  0  0  0
    0.6741    2.5646    0.0000 C   0  0  0  0  0  0  0  0  0  0  0  0
    0.0291    3.0790    0.0000 O   0  0  0  0  0  0  0  0  0  0  0  0
   -0.7753    2.8954    0.0000 C   0  0  0  0  0  0  0  0  0  0  0  0
   -1.1332    2.1521    0.0000 C   0  0  0  0  0  0  0  0  0  0  0  0
   -1.9559    2.2138    0.0000 C   0  0  0  0  0  0  0  0  0  0  0  0
   -2.4206    1.5321    0.0000 C   0  0  0  0  0  0  0  0  0  0  0  0
   -2.0627    0.7888    0.0000 C   0  0  0  0  0  0  0  0  0  0  0  0
   -2.5274    0.1072    0.0000 Br  0  0  0  0  0  0  0  0  0  0  0  0
   -1.2400    0.7272    0.0000 C   0  0  0  0  0  0  0  0  0  0  0  0
   -0.7753    1.4088    0.0000 C   0  0  0  0  0  0  0  0  0  0  0  0
    0.0291    1.2252    0.0000 C   0  0  0  0  0  0  0  0  0  0  0  0
    0.2126    0.4209    0.0000 S   0  0  0  0  0  0  0  0  0  0  0  0
   -0.3921   -0.1402    0.0000 C   0  0  0  0  0  0  0  0  0  0  0  0
   -0.2085   -0.9445    0.0000 C   0  0  0  0  0  0  0  0  0  0  0  0
   -0.8133   -1.5057    0.0000 N   0  0  0  0  0  0  0  0  0  0  0  0
   -0.6297   -2.3100    0.0000 S   0  0  0  0  0  0  0  0  0  0  0  0
    0.1746   -2.1264    0.0000 O   0  0  0  0  0  0  0  0  0  0  0  0
   -1.4340   -2.4936    0.0000 O   0  0  0  0  0  0  0  0  0  0  0  0
   -0.4462   -3.1143    0.0000 C   0  0  0  0  0  0  0  0  0  0  0  0
   -1.0509   -3.6755    0.0000 C   0  0  0  0  0  0  0  0  0  0  0  0
   -0.8673   -4.4798    0.0000 C   0  0  0  0  0  0  0  0  0  0  0  0
   -0.0790   -4.7229    0.0000 C   0  0  0  0  0  0  0  0  0  0  0  0
    0.5258   -4.1618    0.0000 C   0  0  0  0  0  0  0  0  0  0  0  0
    0.3422   -3.3575    0.0000 C   0  0  0  0  0  0  0  0  0  0  0  0
    0.6741    1.7396    0.0000 C   0  0  0  0  0  0  0  0  0  0  0  0
    1.3885    1.3271    0.0000 C   0  0  0  0  0  0  0  0  0  0  0  0
  1  2  1  0  0  0  0
  2  3  2  0  0  0  0
  2  4  1  0  0  0  0
  4  5  1  0  0  0  0
  5  6  2  0  0  0  0
  6  7  1  0  0  0  0
  7  8  1  0  0  0  0
  8  9  1  0  0  0  0
  9 10  1  0  0  0  0
 10 11  1  0  0  0  0
 11 12  2  0  0  0  0
 12 13  1  0  0  0  0
 13 14  1  0  0  0  0
 13 15  2  0  0  0  0
 15 16  1  0  0  0  0
 10 16  2  0  0  0  0
 16 17  1  0  0  0  0
 17 18  1  0  0  0  0
 18 19  1  0  0  0  0
 19 20  1  0  0  0  0
 20 21  1  0  0  0  0
 21 22  1  0  0  0  0
 22 23  2  0  0  0  0
 22 24  2  0  0  0  0
 22 25  1  0  0  0  0
 25 26  1  0  0  0  0
 26 27  2  0  0  0  0
 27 28  1  0  0  0  0
 28 29  2  0  0  0  0
 29 30  1  0  0  0  0
 25 30  2  0  0  0  0
 17 31  1  0  0  0  0
  7 31  2  0  0  0  0
 31 32  1  0  0  0  0
  4 32  2  0  0  0  0
M  END
>  <Name>
CHEMBL114102

>  <Target_Uniprot>
P21731

>  <CHEMBL Canonical SMILES>
OC(=O)c1ccc2OCc3ccc(Br)cc3C(SCCNS(=O)(=O)c4ccccc4)c2c1

>  <PubMed ID>
1388207

$$$$

  Marvin  08031817322D          

 27 30  0  0  0  0            999 V2000
   -2.3179   -0.6227    0.0000 O   0  0  0  0  0  0  0  0  0  0  0  0
   -1.6034   -1.0352    0.0000 C   0  0  0  0  0  0  0  0  0  0  0  0
   -1.6034   -1.8602    0.0000 O   0  0  0  0  0  0  0  0  0  0  0  0
   -0.8890   -0.6227    0.0000 C   0  0  0  0  0  0  0  0  0  0  0  0
   -0.8890    0.2023    0.0000 C   0  0  0  0  0  0  0  0  0  0  0  0
   -1.6034    0.6148    0.0000 C   0  0  0  0  0  0  0  0  0  0  0  0
   -1.6034    1.4398    0.0000 C   0  0  0  0  0  0  0  0  0  0  0  0
   -0.8890    1.8523    0.0000 C   0  0  0  0  0  0  0  0  0  0  0  0
   -0.1745    1.4398    0.0000 C   0  0  0  0  0  0  0  0  0  0  0  0
   -0.1745    0.6148    0.0000 C   0  0  0  0  0  0  0  0  0  0  0  0
    0.6101    0.3599    0.0000 N   0  0  0  0  0  0  0  0  0  0  0  0
    0.8651   -0.4247    0.0000 C   0  0  0  0  0  0  0  0  0  0  0  0
    0.3130   -1.0378    0.0000 C   0  0  0  0  0  0  0  0  0  0  0  0
   -0.4939   -0.8663    0.0000 C   0  0  0  0  0  0  0  0  0  0  0  0
   -1.0460   -1.4794    0.0000 C   0  0  0  0  0  0  0  0  0  0  0  0
   -0.7910   -2.2640    0.0000 C   0  0  0  0  0  0  0  0  0  0  0  0
   -1.3430   -2.8771    0.0000 Cl  0  0  0  0  0  0  0  0  0  0  0  0
    0.0160   -2.4356    0.0000 C   0  0  0  0  0  0  0  0  0  0  0  0
    0.5680   -1.8225    0.0000 C   0  0  0  0  0  0  0  0  0  0  0  0
    1.0951    1.0273    0.0000 C   0  0  0  0  0  0  0  0  0  0  0  0
    1.9155    1.1135    0.0000 C   0  0  0  0  0  0  0  0  0  0  0  0
    2.4005    0.4461    0.0000 C   0  0  0  0  0  0  0  0  0  0  0  0
    2.0649   -0.3076    0.0000 O   0  0  0  0  0  0  0  0  0  0  0  0
    2.2511    1.8672    0.0000 C   0  0  0  0  0  0  0  0  0  0  0  0
    1.7662    2.5347    0.0000 C   0  0  0  0  0  0  0  0  0  0  0  0
    0.9457    2.4484    0.0000 C   0  0  0  0  0  0  0  0  0  0  0  0
    0.6101    1.6948    0.0000 C   0  0  0  0  0  0  0  0  0  0  0  0
  1  2  1  0  0  0  0
  2  3  2  0  0  0  0
  2  4  1  0  0  0  0
  4  5  1  0  0  0  0
  5  6  1  0  0  0  0
  6  7  1  0  0  0  0
  7  8  1  0  0  0  0
  8  9  1  0  0  0  0
  9 10  2  0  0  0  0
  5 10  1  0  0  0  0
 10 11  1  0  0  0  0
 11 12  1  0  0  0  0
 12 13  1  0  0  0  0
 13 14  1  0  0  0  0
 14 15  2  0  0  0  0
 15 16  1  0  0  0  0
 16 17  1  0  0  0  0
 16 18  2  0  0  0  0
 18 19  1  0  0  0  0
 13 19  2  0  0  0  0
 11 20  1  0  0  0  0
 20 21  1  0  0  0  0
 21 22  1  0  0  0  0
 22 23  2  0  0  0  0
 21 24  2  0  0  0  0
 24 25  1  0  0  0  0
 25 26  2  0  0  0  0
 26 27  1  0  0  0  0
  9 27  1  0  0  0  0
 20 27  2  0  0  0  0
M  END
>  <Name>
CHEMBL210045

>  <Target_Uniprot>
P21731

>  <CHEMBL Canonical SMILES>
OC(=O)CC1CCCc2c1n(Cc3ccc(Cl)cc3)c4c(C=O)cccc24

>  <PubMed ID>
16529930

$$$$

  Marvin  08031817322D          

 33 36  0  0  0  0            999 V2000
    2.8628    0.9594    0.0000 O   0  0  0  0  0  0  0  0  0  0  0  0
    2.8628    1.7844    0.0000 C   0  0  0  0  0  0  0  0  0  0  0  0
    3.5773    2.1969    0.0000 O   0  0  0  0  0  0  0  0  0  0  0  0
    2.1484    2.1969    0.0000 C   0  0  0  0  0  0  0  0  0  0  0  0
    2.1484    3.0219    0.0000 C   0  0  0  0  0  0  0  0  0  0  0  0
    1.4339    3.4344    0.0000 C   0  0  0  0  0  0  0  0  0  0  0  0
    0.7194    3.0219    0.0000 C   0  0  0  0  0  0  0  0  0  0  0  0
    0.0744    3.5363    0.0000 O   0  0  0  0  0  0  0  0  0  0  0  0
   -0.7299    3.3527    0.0000 C   0  0  0  0  0  0  0  0  0  0  0  0
   -1.0878    2.6094    0.0000 C   0  0  0  0  0  0  0  0  0  0  0  0
   -1.9105    2.6710    0.0000 C   0  0  0  0  0  0  0  0  0  0  0  0
   -2.3753    1.9894    0.0000 C   0  0  0  0  0  0  0  0  0  0  0  0
   -2.0173    1.2461    0.0000 C   0  0  0  0  0  0  0  0  0  0  0  0
   -1.1946    1.1844    0.0000 C   0  0  0  0  0  0  0  0  0  0  0  0
   -0.7299    1.8661    0.0000 C   0  0  0  0  0  0  0  0  0  0  0  0
    0.0744    1.6825    0.0000 C   0  0  0  0  0  0  0  0  0  0  0  0
    0.2580    0.8782    0.0000 S   0  0  0  0  0  0  0  0  0  0  0  0
   -0.3468    0.3170    0.0000 C   0  0  0  0  0  0  0  0  0  0  0  0
   -0.1632   -0.4873    0.0000 C   0  0  0  0  0  0  0  0  0  0  0  0
   -0.7680   -1.0484    0.0000 N   0  0  0  0  0  0  0  0  0  0  0  0
   -0.5844   -1.8527    0.0000 S   0  0  0  0  0  0  0  0  0  0  0  0
    0.2199   -1.6691    0.0000 O   0  0  0  0  0  0  0  0  0  0  0  0
   -1.3887   -2.0363    0.0000 O   0  0  0  0  0  0  0  0  0  0  0  0
   -0.4008   -2.6570    0.0000 C   0  0  0  0  0  0  0  0  0  0  0  0
   -1.0056   -3.2182    0.0000 C   0  0  0  0  0  0  0  0  0  0  0  0
   -0.8220   -4.0225    0.0000 C   0  0  0  0  0  0  0  0  0  0  0  0
   -1.4268   -4.5836    0.0000 C   0  0  0  0  0  0  0  0  0  0  0  0
   -1.2432   -5.3880    0.0000 C   0  0  0  0  0  0  0  0  0  0  0  0
   -0.4548   -5.6311    0.0000 C   0  0  0  0  0  0  0  0  0  0  0  0
    0.1499   -5.0700    0.0000 C   0  0  0  0  0  0  0  0  0  0  0  0
   -0.0336   -4.2657    0.0000 C   0  0  0  0  0  0  0  0  0  0  0  0
    0.7194    2.1969    0.0000 C   0  0  0  0  0  0  0  0  0  0  0  0
    1.4339    1.7844    0.0000 C   0  0  0  0  0  0  0  0  0  0  0  0
  1  2  1  0  0  0  0
  2  3  2  0  0  0  0
  2  4  1  0  0  0  0
  4  5  1  0  0  0  0
  5  6  2  0  0  0  0
  6  7  1  0  0  0  0
  7  8  1  0  0  0  0
  8  9  1  0  0  0  0
  9 10  1  0  0  0  0
 10 11  1  0  0  0  0
 11 12  2  0  0  0  0
 12 13  1  0  0  0  0
 13 14  2  0  0  0  0
 14 15  1  0  0  0  0
 10 15  2  0  0  0  0
 15 16  1  0  0  0  0
 16 17  1  0  0  0  0
 17 18  1  0  0  0  0
 18 19  1  0  0  0  0
 19 20  1  0  0  0  0
 20 21  1  0  0  0  0
 21 22  2  0  0  0  0
 21 23  2  0  0  0  0
 21 24  1  0  0  0  0
 24 25  2  0  0  0  0
 25 26  1  0  0  0  0
 26 27  1  0  0  0  0
 27 28  2  0  0  0  0
 28 29  1  0  0  0  0
 29 30  2  0  0  0  0
 30 31  1  0  0  0  0
 26 31  2  0  0  0  0
 16 32  1  0  0  0  0
  7 32  2  0  0  0  0
 32 33  1  0  0  0  0
  4 33  2  0  0  0  0
M  END
>  <Name>
CHEMBL324364

>  <Target_Uniprot>
P21731

>  <CHEMBL Canonical SMILES>
OC(=O)c1ccc2OCc3ccccc3C(SCCNS(=O)(=O)\C=C\c4ccccc4)c2c1

>  <PubMed ID>
1388207

$$$$

  Marvin  08031817322D          

 36 40  0  0  0  0            999 V2000
    1.9743   -3.7271    0.0000 O   0  0  0  0  0  0  0  0  0  0  0  0
    1.6387   -2.9734    0.0000 C   0  0  0  0  0  0  0  0  0  0  0  0
    2.0512   -2.2589    0.0000 C   0  0  0  0  0  0  0  0  0  0  0  0
    1.4992   -1.6458    0.0000 C   0  0  0  0  0  0  0  0  0  0  0  0
    1.6707   -0.8388    0.0000 O   0  0  0  0  0  0  0  0  0  0  0  0
    0.7455   -1.9814    0.0000 C   0  0  0  0  0  0  0  0  0  0  0  0
    0.0311   -1.5689    0.0000 C   0  0  0  0  0  0  0  0  0  0  0  0
    0.0311   -0.7439    0.0000 C   0  0  0  0  0  0  0  0  0  0  0  0
    0.7455   -0.3314    0.0000 C   0  0  0  0  0  0  0  0  0  0  0  0
    0.7455    0.4936    0.0000 C   0  0  0  0  0  0  0  0  0  0  0  0
    0.0311    0.9061    0.0000 C   0  0  0  0  0  0  0  0  0  0  0  0
   -0.6834    0.4936    0.0000 C   0  0  0  0  0  0  0  0  0  0  0  0
   -1.3979    0.9061    0.0000 C   0  0  0  0  0  0  0  0  0  0  0  0
   -2.1123    0.4936    0.0000 C   0  0  0  0  0  0  0  0  0  0  0  0
   -2.1123   -0.3314    0.0000 C   0  0  0  0  0  0  0  0  0  0  0  0
   -1.3979   -0.7439    0.0000 C   0  0  0  0  0  0  0  0  0  0  0  0
   -0.6834   -0.3314    0.0000 C   0  0  0  0  0  0  0  0  0  0  0  0
   -2.8268    0.9061    0.0000 N   0  0  0  0  0  0  0  0  0  0  0  0
   -2.8268    1.7311    0.0000 S   0  0  0  0  0  0  0  0  0  0  0  0
   -3.6518    1.7311    0.0000 O   0  0  0  0  0  0  0  0  0  0  0  0
   -2.0018    1.7311    0.0000 O   0  0  0  0  0  0  0  0  0  0  0  0
   -2.8268    2.5561    0.0000 C   0  0  0  0  0  0  0  0  0  0  0  0
   -2.1123    2.9686    0.0000 C   0  0  0  0  0  0  0  0  0  0  0  0
   -2.1123    3.7936    0.0000 C   0  0  0  0  0  0  0  0  0  0  0  0
   -2.8268    4.2061    0.0000 C   0  0  0  0  0  0  0  0  0  0  0  0
   -2.8268    5.0311    0.0000 Cl  0  0  0  0  0  0  0  0  0  0  0  0
   -3.5413    3.7936    0.0000 C   0  0  0  0  0  0  0  0  0  0  0  0
   -3.5413    2.9686    0.0000 C   0  0  0  0  0  0  0  0  0  0  0  0
    0.8318   -2.8019    0.0000 C   0  0  0  0  0  0  0  0  0  0  0  0
    2.8717   -2.1727    0.0000 C   0  0  0  0  0  0  0  0  0  0  0  0
    3.3566   -2.8401    0.0000 C   0  0  0  0  0  0  0  0  0  0  0  0
    4.1771   -2.7539    0.0000 C   0  0  0  0  0  0  0  0  0  0  0  0
    4.5127   -2.0002    0.0000 C   0  0  0  0  0  0  0  0  0  0  0  0
    5.3332   -1.9140    0.0000 F   0  0  0  0  0  0  0  0  0  0  0  0
    4.0278   -1.3328    0.0000 C   0  0  0  0  0  0  0  0  0  0  0  0
    3.2073   -1.4190    0.0000 C   0  0  0  0  0  0  0  0  0  0  0  0
  1  2  1  0  0  0  0
  2  3  2  0  0  0  0
  3  4  1  0  0  0  0
  4  5  2  0  0  0  0
  4  6  1  0  0  0  0
  6  7  1  0  0  0  0
  7  8  1  0  0  0  0
  8  9  1  0  0  0  0
  9 10  2  0  0  0  0
 10 11  1  0  0  0  0
 11 12  2  0  0  0  0
 12 13  1  0  0  0  0
 13 14  1  0  0  0  0
 14 15  1  0  0  0  0
 15 16  1  0  0  0  0
 16 17  1  0  0  0  0
  8 17  2  0  0  0  0
 12 17  1  0  0  0  0
 14 18  1  0  0  0  0
 18 19  1  0  0  0  0
 19 20  2  0  0  0  0
 19 21  2  0  0  0  0
 19 22  1  0  0  0  0
 22 23  1  0  0  0  0
 23 24  2  0  0  0  0
 24 25  1  0  0  0  0
 25 26  1  0  0  0  0
 25 27  2  0  0  0  0
 27 28  1  0  0  0  0
 22 28  2  0  0  0  0
  6 29  1  0  0  0  0
  2 29  1  0  0  0  0
  3 30  1  0  0  0  0
 30 31  1  0  0  0  0
 31 32  2  0  0  0  0
 32 33  1  0  0  0  0
 33 34  1  0  0  0  0
 33 35  2  0  0  0  0
 35 36  1  0  0  0  0
 30 36  2  0  0  0  0
M  END
>  <Name>
CHEMBL3354615

>  <Target_Uniprot>
P21731

>  <CHEMBL Canonical SMILES>
OC1=C(C(=O)C(Cc2cccc3CC(CCc23)NS(=O)(=O)c4ccc(Cl)cc4)C1)c5ccc(F)cc5

>  <PubMed ID>
25221659

$$$$

  Marvin  08031817322D          

 27 29  0  0  0  0            999 V2000
    1.0173    1.7562    0.0000 C   0  0  0  0  0  0  0  0  0  0  0  0
    1.7318    1.3437    0.0000 C   0  0  0  0  0  0  0  0  0  0  0  0
    2.4463    0.9312    0.0000 C   0  0  0  0  0  0  0  0  0  0  0  0
    2.1443    2.0582    0.0000 C   0  0  0  0  0  0  0  0  0  0  0  0
    2.9693    2.0582    0.0000 C   0  0  0  0  0  0  0  0  0  0  0  0
    3.3818    1.3437    0.0000 O   0  0  0  0  0  0  0  0  0  0  0  0
    3.3818    2.7726    0.0000 O   0  0  0  0  0  0  0  0  0  0  0  0
    1.3193    0.6292    0.0000 C   0  0  0  0  0  0  0  0  0  0  0  0
    0.4943    0.6292    0.0000 C   0  0  0  0  0  0  0  0  0  0  0  0
    0.0094    1.2967    0.0000 N   0  0  0  0  0  0  0  0  0  0  0  0
   -0.7752    1.0417    0.0000 C   0  0  0  0  0  0  0  0  0  0  0  0
   -1.4897    1.4542    0.0000 C   0  0  0  0  0  0  0  0  0  0  0  0
   -2.2042    1.0417    0.0000 C   0  0  0  0  0  0  0  0  0  0  0  0
   -2.9187    1.4542    0.0000 F   0  0  0  0  0  0  0  0  0  0  0  0
   -2.2042    0.2167    0.0000 C   0  0  0  0  0  0  0  0  0  0  0  0
   -1.4897   -0.1958    0.0000 C   0  0  0  0  0  0  0  0  0  0  0  0
   -0.7752    0.2167    0.0000 C   0  0  0  0  0  0  0  0  0  0  0  0
    0.0094   -0.0382    0.0000 N   0  0  0  0  0  0  0  0  0  0  0  0
    0.2643   -0.8228    0.0000 C   0  0  0  0  0  0  0  0  0  0  0  0
   -0.2877   -1.4359    0.0000 C   0  0  0  0  0  0  0  0  0  0  0  0
   -1.0947   -1.2644    0.0000 C   0  0  0  0  0  0  0  0  0  0  0  0
   -1.6467   -1.8775    0.0000 C   0  0  0  0  0  0  0  0  0  0  0  0
   -1.3918   -2.6621    0.0000 C   0  0  0  0  0  0  0  0  0  0  0  0
   -1.9438   -3.2752    0.0000 Cl  0  0  0  0  0  0  0  0  0  0  0  0
   -0.5848   -2.8336    0.0000 C   0  0  0  0  0  0  0  0  0  0  0  0
   -0.3299   -3.6183    0.0000 Cl  0  0  0  0  0  0  0  0  0  0  0  0
   -0.0328   -2.2205    0.0000 C   0  0  0  0  0  0  0  0  0  0  0  0
  1  2  1  0  0  0  0
  2  3  1  0  0  0  0
  2  4  1  0  0  0  0
  4  5  1  0  0  0  0
  5  6  2  0  0  0  0
  5  7  1  0  0  0  0
  2  8  1  0  0  0  0
  8  9  1  0  0  0  0
  9 10  2  0  0  0  0
 10 11  1  0  0  0  0
 11 12  1  0  0  0  0
 12 13  2  0  0  0  0
 13 14  1  0  0  0  0
 13 15  1  0  0  0  0
 15 16  2  0  0  0  0
 16 17  1  0  0  0  0
 11 17  2  0  0  0  0
 17 18  1  0  0  0  0
  9 18  1  0  0  0  0
 18 19  1  0  0  0  0
 19 20  1  0  0  0  0
 20 21  1  0  0  0  0
 21 22  2  0  0  0  0
 22 23  1  0  0  0  0
 23 24  1  0  0  0  0
 23 25  2  0  0  0  0
 25 26  1  0  0  0  0
 25 27  1  0  0  0  0
 20 27  2  0  0  0  0
M  END
>  <Name>
CHEMBL18257

>  <Target_Uniprot>
P21731

>  <CHEMBL Canonical SMILES>
CC(C)(CC(=O)O)Cc1nc2cc(F)ccc2n1Cc3ccc(Cl)c(Cl)c3

>  <PubMed ID>
8487256

$$$$

  Marvin  08031817322D          

 33 37  0  0  0  0            999 V2000
   -2.8758   -2.4820    0.0000 C   0  0  0  0  0  0  0  0  0  0  0  0
   -2.1614   -2.8945    0.0000 O   0  0  0  0  0  0  0  0  0  0  0  0
   -1.4469   -2.4820    0.0000 C   0  0  0  0  0  0  0  0  0  0  0  0
   -1.4469   -1.6570    0.0000 C   0  0  0  0  0  0  0  0  0  0  0  0
   -0.7324   -1.2445    0.0000 C   0  0  0  0  0  0  0  0  0  0  0  0
   -0.7324   -0.4195    0.0000 O   0  0  0  0  0  0  0  0  0  0  0  0
   -1.4469   -0.0070    0.0000 C   0  0  0  0  0  0  0  0  0  0  0  0
   -0.0179   -1.6570    0.0000 C   0  0  0  0  0  0  0  0  0  0  0  0
   -0.0179   -2.4820    0.0000 C   0  0  0  0  0  0  0  0  0  0  0  0
   -0.7324   -2.8945    0.0000 C   0  0  0  0  0  0  0  0  0  0  0  0
    0.7667   -2.7369    0.0000 N   0  0  0  0  0  0  0  0  0  0  0  0
    1.2516   -2.0695    0.0000 C   0  0  0  0  0  0  0  0  0  0  0  0
    0.7667   -1.4021    0.0000 N   0  0  0  0  0  0  0  0  0  0  0  0
    1.0216   -0.6174    0.0000 C   0  0  0  0  0  0  0  0  0  0  0  0
    0.4696   -0.0044    0.0000 C   0  0  0  0  0  0  0  0  0  0  0  0
    0.7245    0.7803    0.0000 C   0  0  0  0  0  0  0  0  0  0  0  0
    1.5421    0.8910    0.0000 C   0  0  0  0  0  0  0  0  0  0  0  0
    1.9438    0.1704    0.0000 C   0  0  0  0  0  0  0  0  0  0  0  0
    2.7687    0.1581    0.0000 C   0  0  0  0  0  0  0  0  0  0  0  0
    3.1919    0.8663    0.0000 C   0  0  0  0  0  0  0  0  0  0  0  0
    2.7901    1.5869    0.0000 C   0  0  0  0  0  0  0  0  0  0  0  0
    1.9652    1.5992    0.0000 C   0  0  0  0  0  0  0  0  0  0  0  0
    1.6753    2.3716    0.0000 C   0  0  0  0  0  0  0  0  0  0  0  0
    0.8907    2.6266    0.0000 O   0  0  0  0  0  0  0  0  0  0  0  0
    0.2022    2.1721    0.0000 C   0  0  0  0  0  0  0  0  0  0  0  0
   -0.4724    2.6470    0.0000 C   0  0  0  0  0  0  0  0  0  0  0  0
   -1.2210    2.3002    0.0000 C   0  0  0  0  0  0  0  0  0  0  0  0
   -1.2950    1.4785    0.0000 C   0  0  0  0  0  0  0  0  0  0  0  0
   -0.6204    1.0036    0.0000 C   0  0  0  0  0  0  0  0  0  0  0  0
    0.1282    1.3504    0.0000 C   0  0  0  0  0  0  0  0  0  0  0  0
   -2.0435    1.1317    0.0000 C   0  0  0  0  0  0  0  0  0  0  0  0
   -2.1175    0.3100    0.0000 O   0  0  0  0  0  0  0  0  0  0  0  0
   -2.7182    1.6066    0.0000 O   0  0  0  0  0  0  0  0  0  0  0  0
  1  2  1  0  0  0  0
  2  3  1  0  0  0  0
  3  4  1  0  0  0  0
  4  5  2  0  0  0  0
  5  6  1  0  0  0  0
  6  7  1  0  0  0  0
  5  8  1  0  0  0  0
  8  9  2  0  0  0  0
  9 10  1  0  0  0  0
  3 10  2  0  0  0  0
  9 11  1  0  0  0  0
 11 12  2  0  0  0  0
 12 13  1  0  0  0  0
  8 13  1  0  0  0  0
 13 14  1  0  0  0  0
 14 15  1  0  0  0  0
 15 16  2  0  0  0  0
 16 17  1  0  0  0  0
 17 18  1  0  0  0  0
 18 19  2  0  0  0  0
 19 20  1  0  0  0  0
 20 21  2  0  0  0  0
 21 22  1  0  0  0  0
 17 22  2  0  0  0  0
 22 23  1  0  0  0  0
 23 24  1  0  0  0  0
 24 25  1  0  0  0  0
 25 26  1  0  0  0  0
 26 27  2  0  0  0  0
 27 28  1  0  0  0  0
 28 29  2  0  0  0  0
 29 30  1  0  0  0  0
 16 30  1  0  0  0  0
 25 30  2  0  0  0  0
 28 31  1  0  0  0  0
 31 32  2  0  0  0  0
 31 33  1  0  0  0  0
M  END
>  <Name>
CHEMBL113944

>  <Target_Uniprot>
P21731

>  <CHEMBL Canonical SMILES>
COc1cc(OC)c2c(c1)ncn2C\C=C\3/c4ccccc4COc5ccc(cc35)C(=O)O

>  <PubMed ID>
1388208

$$$$

  Marvin  08031817322D          

 27 29  0  0  0  0            999 V2000
   -1.6385   -4.0435    0.0000 C   0  0  0  0  0  0  0  0  0  0  0  0
   -1.8935   -3.2589    0.0000 S   0  0  0  0  0  0  0  0  0  0  0  0
   -1.3415   -2.6458    0.0000 C   0  0  0  0  0  0  0  0  0  0  0  0
   -0.5345   -2.8173    0.0000 C   0  0  0  0  0  0  0  0  0  0  0  0
    0.0176   -2.2042    0.0000 C   0  0  0  0  0  0  0  0  0  0  0  0
   -0.2374   -1.4196    0.0000 C   0  0  0  0  0  0  0  0  0  0  0  0
    0.3146   -0.8065    0.0000 C   0  0  0  0  0  0  0  0  0  0  0  0
    0.0597   -0.0219    0.0000 N   0  0  0  0  0  0  0  0  0  0  0  0
    0.5446    0.6456    0.0000 C   0  0  0  0  0  0  0  0  0  0  0  0
    1.3696    0.6456    0.0000 C   0  0  0  0  0  0  0  0  0  0  0  0
    1.7821    1.3601    0.0000 C   0  0  0  0  0  0  0  0  0  0  0  0
    1.0677    1.7726    0.0000 C   0  0  0  0  0  0  0  0  0  0  0  0
    2.4966    0.9476    0.0000 C   0  0  0  0  0  0  0  0  0  0  0  0
    2.1946    2.0745    0.0000 C   0  0  0  0  0  0  0  0  0  0  0  0
    3.0196    2.0745    0.0000 C   0  0  0  0  0  0  0  0  0  0  0  0
    3.4321    1.3601    0.0000 O   0  0  0  0  0  0  0  0  0  0  0  0
    3.4321    2.7890    0.0000 O   0  0  0  0  0  0  0  0  0  0  0  0
    0.0597    1.3130    0.0000 N   0  0  0  0  0  0  0  0  0  0  0  0
   -0.7249    1.0581    0.0000 C   0  0  0  0  0  0  0  0  0  0  0  0
   -1.4394    1.4706    0.0000 C   0  0  0  0  0  0  0  0  0  0  0  0
   -2.1539    1.0581    0.0000 C   0  0  0  0  0  0  0  0  0  0  0  0
   -2.8683    1.4706    0.0000 Cl  0  0  0  0  0  0  0  0  0  0  0  0
   -2.1539    0.2331    0.0000 C   0  0  0  0  0  0  0  0  0  0  0  0
   -1.4394   -0.1794    0.0000 C   0  0  0  0  0  0  0  0  0  0  0  0
   -0.7249    0.2331    0.0000 C   0  0  0  0  0  0  0  0  0  0  0  0
   -1.0444   -1.2480    0.0000 C   0  0  0  0  0  0  0  0  0  0  0  0
   -1.5964   -1.8611    0.0000 C   0  0  0  0  0  0  0  0  0  0  0  0
  1  2  1  0  0  0  0
  2  3  1  0  0  0  0
  3  4  1  0  0  0  0
  4  5  2  0  0  0  0
  5  6  1  0  0  0  0
  6  7  1  0  0  0  0
  7  8  1  0  0  0  0
  8  9  1  0  0  0  0
  9 10  1  0  0  0  0
 10 11  1  0  0  0  0
 11 12  1  0  0  0  0
 11 13  1  0  0  0  0
 11 14  1  0  0  0  0
 14 15  1  0  0  0  0
 15 16  2  0  0  0  0
 15 17  1  0  0  0  0
  9 18  2  0  0  0  0
 18 19  1  0  0  0  0
 19 20  1  0  0  0  0
 20 21  2  0  0  0  0
 21 22  1  0  0  0  0
 21 23  1  0  0  0  0
 23 24  2  0  0  0  0
 24 25  1  0  0  0  0
  8 25  1  0  0  0  0
 19 25  2  0  0  0  0
  6 26  2  0  0  0  0
 26 27  1  0  0  0  0
  3 27  2  0  0  0  0
M  END
>  <Name>
CHEMBL18000

>  <Target_Uniprot>
P21731

>  <CHEMBL Canonical SMILES>
CSc1ccc(Cn2c(CC(C)(C)CC(=O)O)nc3cc(Cl)ccc23)cc1

>  <PubMed ID>
8487256

$$$$

  Marvin  08031817322D          

 30 31  0  0  0  0            999 V2000
   -2.2863   -0.0825    0.0000 O   0  0  0  0  0  0  0  0  0  0  0  0
   -2.2863   -0.9075    0.0000 C   0  0  0  0  0  0  0  0  0  0  0  0
   -3.0008   -1.3200    0.0000 O   0  0  0  0  0  0  0  0  0  0  0  0
   -1.5718   -1.3200    0.0000 C   0  0  0  0  0  0  0  0  0  0  0  0
   -0.8574   -0.9075    0.0000 C   0  0  0  0  0  0  0  0  0  0  0  0
   -0.1429   -1.3200    0.0000 C   0  0  0  0  0  0  0  0  0  0  0  0
    0.5716   -0.9075    0.0000 C   0  0  0  0  0  0  0  0  0  0  0  0
    0.5716   -0.0825    0.0000 C   0  0  0  0  0  0  0  0  0  0  0  0
    1.2860    0.3300    0.0000 C   0  0  0  0  0  0  0  0  0  0  0  0
    1.2860    1.1550    0.0000 C   0  0  0  0  0  0  0  0  0  0  0  0
    2.0005    1.5675    0.0000 N   0  0  0  0  0  0  0  0  0  0  0  0
    2.0005    2.3925    0.0000 S   0  0  0  0  0  0  0  0  0  0  0  0
    2.8255    2.3925    0.0000 O   0  0  0  0  0  0  0  0  0  0  0  0
    1.1755    2.3925    0.0000 O   0  0  0  0  0  0  0  0  0  0  0  0
    2.0005    3.2175    0.0000 C   0  0  0  0  0  0  0  0  0  0  0  0
    2.7150    3.6300    0.0000 C   0  0  0  0  0  0  0  0  0  0  0  0
    2.7150    4.4550    0.0000 C   0  0  0  0  0  0  0  0  0  0  0  0
    2.0005    4.8675    0.0000 C   0  0  0  0  0  0  0  0  0  0  0  0
    2.0005    5.6925    0.0000 Cl  0  0  0  0  0  0  0  0  0  0  0  0
    1.2860    4.4550    0.0000 C   0  0  0  0  0  0  0  0  0  0  0  0
    1.2860    3.6300    0.0000 C   0  0  0  0  0  0  0  0  0  0  0  0
   -0.1429   -2.1450    0.0000 C   0  0  0  0  0  0  0  0  0  0  0  0
   -0.8574   -2.5575    0.0000 C   0  0  0  0  0  0  0  0  0  0  0  0
   -0.8574   -3.3825    0.0000 C   0  0  0  0  0  0  0  0  0  0  0  0
   -1.5718   -3.7950    0.0000 C   0  0  0  0  0  0  0  0  0  0  0  0
   -2.2863   -3.3825    0.0000 C   0  0  0  0  0  0  0  0  0  0  0  0
   -3.0008   -3.7950    0.0000 C   0  0  0  0  0  0  0  0  0  0  0  0
   -3.0008   -4.6200    0.0000 C   0  0  0  0  0  0  0  0  0  0  0  0
   -2.2863   -5.0325    0.0000 N   0  0  0  0  0  0  0  0  0  0  0  0
   -1.5718   -4.6200    0.0000 C   0  0  0  0  0  0  0  0  0  0  0  0
  1  2  1  0  0  0  0
  2  3  2  0  0  0  0
  2  4  1  0  0  0  0
  4  5  1  0  0  0  0
  5  6  1  0  0  0  0
  6  7  1  0  0  0  0
  7  8  1  0  0  0  0
  8  9  1  0  0  0  0
  9 10  1  0  0  0  0
 10 11  1  0  0  0  0
 11 12  1  0  0  0  0
 12 13  2  0  0  0  0
 12 14  2  0  0  0  0
 12 15  1  0  0  0  0
 15 16  1  0  0  0  0
 16 17  2  0  0  0  0
 17 18  1  0  0  0  0
 18 19  1  0  0  0  0
 18 20  2  0  0  0  0
 20 21  1  0  0  0  0
 15 21  2  0  0  0  0
  6 22  1  0  0  0  0
 22 23  1  0  0  0  0
 23 24  1  0  0  0  0
 24 25  1  0  0  0  0
 25 26  1  0  0  0  0
 26 27  2  0  0  0  0
 27 28  1  0  0  0  0
 28 29  2  0  0  0  0
 29 30  1  0  0  0  0
 25 30  2  0  0  0  0
M  END
>  <Name>
CHEMBL65414

>  <Target_Uniprot>
P21731

>  <CHEMBL Canonical SMILES>
OC(=O)CCC(CCCCNS(=O)(=O)c1ccc(Cl)cc1)CCCc2cccnc2

>  <PubMed ID>
8289199

$$$$

  Marvin  08031817322D          

 31 34  0  0  0  0            999 V2000
   -1.0417   -2.9901    0.0000 O   0  0  0  0  0  0  0  0  0  0  0  0
   -0.5537   -3.6546    0.0000 C   0  0  0  0  0  0  0  0  0  0  0  0
   -0.7349   -4.4583    0.0000 O   0  0  0  0  0  0  0  0  0  0  0  0
    0.2348   -3.4420    0.0000 C   0  0  0  0  0  0  0  0  0  0  0  0
    0.6342   -2.7271    0.0000 O   0  0  0  0  0  0  0  0  0  0  0  0
    1.4316   -2.4987    0.0000 C   0  0  0  0  0  0  0  0  0  0  0  0
    1.9860   -3.1121    0.0000 C   0  0  0  0  0  0  0  0  0  0  0  0
    2.8030   -2.9418    0.0000 C   0  0  0  0  0  0  0  0  0  0  0  0
    3.0580   -2.1610    0.0000 C   0  0  0  0  0  0  0  0  0  0  0  0
    2.5065   -1.5481    0.0000 C   0  0  0  0  0  0  0  0  0  0  0  0
    1.6979   -1.7281    0.0000 C   0  0  0  0  0  0  0  0  0  0  0  0
    1.2082   -1.1098    0.0000 C   0  0  0  0  0  0  0  0  0  0  0  0
    1.3518   -0.3052    0.0000 C   0  0  0  0  0  0  0  0  0  0  0  0
    2.1794    0.0289    0.0000 C   0  0  0  0  0  0  0  0  0  0  0  0
    2.7917    0.7297    0.0000 C   0  0  0  0  0  0  0  0  0  0  0  0
    2.2598    1.4412    0.0000 C   0  0  0  0  0  0  0  0  0  0  0  0
    1.4151    1.0517    0.0000 C   0  0  0  0  0  0  0  0  0  0  0  0
    2.0228    0.7095    0.0000 O   0  0  0  0  0  0  0  0  0  0  0  0
    0.8612    0.3522    0.0000 C   0  0  0  0  0  0  0  0  0  0  0  0
    0.0467    0.4362    0.0000 C   0  0  0  0  0  0  0  0  0  0  0  0
   -0.3166    1.1640    0.0000 N   0  0  0  0  0  0  0  0  0  0  0  0
   -1.1322    1.1386    0.0000 N   0  0  0  0  0  0  0  0  0  0  0  0
   -1.5540    1.8357    0.0000 C   0  0  0  0  0  0  0  0  0  0  0  0
   -1.1599    2.5528    0.0000 O   0  0  0  0  0  0  0  0  0  0  0  0
   -2.3719    1.8322    0.0000 N   0  0  0  0  0  0  0  0  0  0  0  0
   -2.8572    2.5116    0.0000 C   0  0  0  0  0  0  0  0  0  0  0  0
   -2.4456    3.2272    0.0000 C   0  0  0  0  0  0  0  0  0  0  0  0
   -2.8594    3.9488    0.0000 C   0  0  0  0  0  0  0  0  0  0  0  0
   -3.6819    3.9539    0.0000 C   0  0  0  0  0  0  0  0  0  0  0  0
   -4.0954    3.2429    0.0000 C   0  0  0  0  0  0  0  0  0  0  0  0
   -3.6840    2.5199    0.0000 C   0  0  0  0  0  0  0  0  0  0  0  0
  1  2  1  0  0  0  0
  2  3  2  0  0  0  0
  2  4  1  0  0  0  0
  4  5  1  0  0  0  0
  5  6  1  0  0  0  0
  6  7  1  0  0  0  0
  7  8  2  0  0  0  0
  8  9  1  0  0  0  0
  9 10  2  0  0  0  0
 10 11  1  0  0  0  0
  6 11  2  0  0  0  0
 11 12  1  0  0  0  0
 12 13  1  0  0  0  0
 13 14  1  0  0  0  0
 14 15  1  0  0  0  0
 15 16  1  0  0  0  0
 16 17  1  0  0  0  0
 17 18  1  0  0  0  0
 14 18  1  0  0  0  0
 17 19  1  0  0  0  0
 13 19  1  0  0  0  0
 19 20  1  0  0  0  0
 20 21  2  0  0  0  0
 21 22  1  0  0  0  0
 22 23  1  0  0  0  0
 23 24  2  0  0  0  0
 23 25  1  0  0  0  0
 25 26  1  0  0  0  0
 26 27  1  0  0  0  0
 27 28  2  0  0  0  0
 28 29  1  0  0  0  0
 29 30  2  0  0  0  0
 30 31  1  0  0  0  0
 26 31  2  0  0  0  0
M  END
>  <Name>
CHEMBL95884

>  <Target_Uniprot>
P21731

>  <CHEMBL Canonical SMILES>
OC(=O)COc1ccccc1CC2C3CCC(O3)C2\C=N\NC(=O)Nc4ccccc4

>  <PubMed ID>
1910091

$$$$

  Marvin  08031817322D          

 32 35  0  0  0  0            999 V2000
    3.1402    0.8103    0.0000 O   0  0  0  0  0  0  0  0  0  0  0  0
    3.1402    1.6353    0.0000 C   0  0  0  0  0  0  0  0  0  0  0  0
    3.8547    2.0478    0.0000 O   0  0  0  0  0  0  0  0  0  0  0  0
    2.4257    2.0478    0.0000 C   0  0  0  0  0  0  0  0  0  0  0  0
    2.4257    2.8728    0.0000 C   0  0  0  0  0  0  0  0  0  0  0  0
    1.7113    3.2853    0.0000 C   0  0  0  0  0  0  0  0  0  0  0  0
    0.9968    2.8728    0.0000 C   0  0  0  0  0  0  0  0  0  0  0  0
    0.3518    3.3872    0.0000 O   0  0  0  0  0  0  0  0  0  0  0  0
   -0.4525    3.2036    0.0000 C   0  0  0  0  0  0  0  0  0  0  0  0
   -0.8105    2.4603    0.0000 C   0  0  0  0  0  0  0  0  0  0  0  0
   -1.6332    2.5219    0.0000 C   0  0  0  0  0  0  0  0  0  0  0  0
   -2.0979    1.8403    0.0000 C   0  0  0  0  0  0  0  0  0  0  0  0
   -1.7400    1.0970    0.0000 C   0  0  0  0  0  0  0  0  0  0  0  0
   -0.9173    1.0353    0.0000 C   0  0  0  0  0  0  0  0  0  0  0  0
   -0.4525    1.7170    0.0000 C   0  0  0  0  0  0  0  0  0  0  0  0
    0.3518    1.5334    0.0000 C   0  0  0  0  0  0  0  0  0  0  0  0
    0.5354    0.7291    0.0000 S   0  0  0  0  0  0  0  0  0  0  0  0
   -0.0694    0.1680    0.0000 C   0  0  0  0  0  0  0  0  0  0  0  0
    0.1142   -0.6364    0.0000 C   0  0  0  0  0  0  0  0  0  0  0  0
   -0.4906   -1.1975    0.0000 N   0  0  0  0  0  0  0  0  0  0  0  0
   -0.3070   -2.0018    0.0000 C   0  0  0  0  0  0  0  0  0  0  0  0
    0.4813   -2.2450    0.0000 S   0  0  0  0  0  0  0  0  0  0  0  0
   -0.9118   -2.5630    0.0000 N   0  0  0  0  0  0  0  0  0  0  0  0
   -0.7282   -3.3673    0.0000 C   0  0  0  0  0  0  0  0  0  0  0  0
   -1.3330   -3.9284    0.0000 C   0  0  0  0  0  0  0  0  0  0  0  0
   -2.1213   -3.6852    0.0000 C   0  0  0  0  0  0  0  0  0  0  0  0
   -2.7261   -4.2464    0.0000 C   0  0  0  0  0  0  0  0  0  0  0  0
   -2.5425   -5.0507    0.0000 C   0  0  0  0  0  0  0  0  0  0  0  0
   -1.7542   -5.2939    0.0000 C   0  0  0  0  0  0  0  0  0  0  0  0
   -1.1494   -4.7327    0.0000 C   0  0  0  0  0  0  0  0  0  0  0  0
    0.9968    2.0478    0.0000 C   0  0  0  0  0  0  0  0  0  0  0  0
    1.7113    1.6353    0.0000 C   0  0  0  0  0  0  0  0  0  0  0  0
  1  2  1  0  0  0  0
  2  3  2  0  0  0  0
  2  4  1  0  0  0  0
  4  5  1  0  0  0  0
  5  6  2  0  0  0  0
  6  7  1  0  0  0  0
  7  8  1  0  0  0  0
  8  9  1  0  0  0  0
  9 10  1  0  0  0  0
 10 11  1  0  0  0  0
 11 12  2  0  0  0  0
 12 13  1  0  0  0  0
 13 14  2  0  0  0  0
 14 15  1  0  0  0  0
 10 15  2  0  0  0  0
 15 16  1  0  0  0  0
 16 17  1  0  0  0  0
 17 18  1  0  0  0  0
 18 19  1  0  0  0  0
 19 20  1  0  0  0  0
 20 21  2  0  0  0  0
 21 22  1  0  0  0  0
 21 23  1  0  0  0  0
 23 24  1  0  0  0  0
 24 25  1  0  0  0  0
 25 26  1  0  0  0  0
 26 27  2  0  0  0  0
 27 28  1  0  0  0  0
 28 29  2  0  0  0  0
 29 30  1  0  0  0  0
 25 30  2  0  0  0  0
 16 31  1  0  0  0  0
  7 31  2  0  0  0  0
 31 32  1  0  0  0  0
  4 32  2  0  0  0  0
M  END
>  <Name>
CHEMBL114324

>  <Target_Uniprot>
P21731

>  <CHEMBL Canonical SMILES>
OC(=O)c1ccc2OCc3ccccc3C(SCC\N=C(/S)\NCc4ccccc4)c2c1

>  <PubMed ID>
1388207

$$$$

  Marvin  08031817322D          

 30 34  0  0  0  0            999 V2000
   -2.2860   -0.2131    0.0000 O   0  0  0  0  0  0  0  0  0  0  0  0
   -2.2120   -1.0347    0.0000 C   0  0  0  0  0  0  0  0  0  0  0  0
   -2.8867   -1.5096    0.0000 O   0  0  0  0  0  0  0  0  0  0  0  0
   -1.4635   -1.3815    0.0000 C   0  0  0  0  0  0  0  0  0  0  0  0
   -1.3895   -2.2032    0.0000 C   0  0  0  0  0  0  0  0  0  0  0  0
   -0.6409   -2.5500    0.0000 C   0  0  0  0  0  0  0  0  0  0  0  0
    0.0337   -2.0751    0.0000 C   0  0  0  0  0  0  0  0  0  0  0  0
    0.7222   -2.5296    0.0000 O   0  0  0  0  0  0  0  0  0  0  0  0
    1.5068   -2.2747    0.0000 C   0  0  0  0  0  0  0  0  0  0  0  0
    1.7967   -1.5023    0.0000 C   0  0  0  0  0  0  0  0  0  0  0  0
    2.6216   -1.4899    0.0000 C   0  0  0  0  0  0  0  0  0  0  0  0
    3.0234   -0.7694    0.0000 C   0  0  0  0  0  0  0  0  0  0  0  0
    2.6002   -0.0612    0.0000 C   0  0  0  0  0  0  0  0  0  0  0  0
    1.7753   -0.0735    0.0000 C   0  0  0  0  0  0  0  0  0  0  0  0
    1.3736   -0.7941    0.0000 C   0  0  0  0  0  0  0  0  0  0  0  0
    0.5560   -0.6833    0.0000 C   0  0  0  0  0  0  0  0  0  0  0  0
    0.3011    0.1013    0.0000 C   0  0  0  0  0  0  0  0  0  0  0  0
    0.8531    0.7144    0.0000 C   0  0  0  0  0  0  0  0  0  0  0  0
    0.5982    1.4990    0.0000 N   0  0  0  0  0  0  0  0  0  0  0  0
    1.0831    2.1665    0.0000 C   0  0  0  0  0  0  0  0  0  0  0  0
    0.5982    2.8339    0.0000 N   0  0  0  0  0  0  0  0  0  0  0  0
   -0.1864    2.5790    0.0000 C   0  0  0  0  0  0  0  0  0  0  0  0
   -0.9009    2.9915    0.0000 C   0  0  0  0  0  0  0  0  0  0  0  0
   -1.6154    2.5790    0.0000 C   0  0  0  0  0  0  0  0  0  0  0  0
   -2.3299    2.9915    0.0000 Cl  0  0  0  0  0  0  0  0  0  0  0  0
   -1.6154    1.7540    0.0000 C   0  0  0  0  0  0  0  0  0  0  0  0
   -0.9009    1.3415    0.0000 C   0  0  0  0  0  0  0  0  0  0  0  0
   -0.1864    1.7540    0.0000 C   0  0  0  0  0  0  0  0  0  0  0  0
   -0.0403   -1.2534    0.0000 C   0  0  0  0  0  0  0  0  0  0  0  0
   -0.7889   -0.9066    0.0000 C   0  0  0  0  0  0  0  0  0  0  0  0
  1  2  1  0  0  0  0
  2  3  2  0  0  0  0
  2  4  1  0  0  0  0
  4  5  1  0  0  0  0
  5  6  2  0  0  0  0
  6  7  1  0  0  0  0
  7  8  1  0  0  0  0
  8  9  1  0  0  0  0
  9 10  1  0  0  0  0
 10 11  1  0  0  0  0
 11 12  2  0  0  0  0
 12 13  1  0  0  0  0
 13 14  2  0  0  0  0
 14 15  1  0  0  0  0
 10 15  2  0  0  0  0
 15 16  1  0  0  0  0
 16 17  2  0  0  0  0
 17 18  1  0  0  0  0
 18 19  1  0  0  0  0
 19 20  1  0  0  0  0
 20 21  2  0  0  0  0
 21 22  1  0  0  0  0
 22 23  1  0  0  0  0
 23 24  2  0  0  0  0
 24 25  1  0  0  0  0
 24 26  1  0  0  0  0
 26 27  2  0  0  0  0
 27 28  1  0  0  0  0
 19 28  1  0  0  0  0
 22 28  2  0  0  0  0
 16 29  1  0  0  0  0
  7 29  2  0  0  0  0
 29 30  1  0  0  0  0
  4 30  2  0  0  0  0
M  END
>  <Name>
CHEMBL325032

>  <Target_Uniprot>
P21731

>  <CHEMBL Canonical SMILES>
OC(=O)c1ccc2OCc3ccccc3\C(=C/Cn4cnc5cc(Cl)ccc45)\c2c1

>  <PubMed ID>
1388208

$$$$

  Marvin  08031817322D          

 37 42  0  0  0  0            999 V2000
   -1.6574   -3.3620    0.0000 O   0  0  0  0  0  0  0  0  0  0  0  0
   -1.6574   -2.5370    0.0000 C   0  0  0  0  0  0  0  0  0  0  0  0
   -2.3718   -2.1245    0.0000 C   0  0  0  0  0  0  0  0  0  0  0  0
   -2.3718   -1.2995    0.0000 C   0  0  0  0  0  0  0  0  0  0  0  0
   -3.0863   -0.8870    0.0000 C   0  0  0  0  0  0  0  0  0  0  0  0
   -3.8008   -1.2995    0.0000 C   0  0  0  0  0  0  0  0  0  0  0  0
   -3.8008   -2.1245    0.0000 C   0  0  0  0  0  0  0  0  0  0  0  0
   -3.0863   -2.5370    0.0000 C   0  0  0  0  0  0  0  0  0  0  0  0
   -0.9429   -2.1245    0.0000 C   0  0  0  0  0  0  0  0  0  0  0  0
   -0.9429   -1.2995    0.0000 C   0  0  0  0  0  0  0  0  0  0  0  0
   -0.2284   -0.8870    0.0000 C   0  0  0  0  0  0  0  0  0  0  0  0
    0.4861   -1.2995    0.0000 C   0  0  0  0  0  0  0  0  0  0  0  0
    0.4861   -2.1245    0.0000 C   0  0  0  0  0  0  0  0  0  0  0  0
   -0.2284   -2.5370    0.0000 C   0  0  0  0  0  0  0  0  0  0  0  0
    1.2707   -2.3794    0.0000 N   0  0  0  0  0  0  0  0  0  0  0  0
    1.7556   -1.7120    0.0000 C   0  0  0  0  0  0  0  0  0  0  0  0
    1.2707   -1.0446    0.0000 N   0  0  0  0  0  0  0  0  0  0  0  0
    1.5256   -0.2599    0.0000 C   0  0  0  0  0  0  0  0  0  0  0  0
    0.9736    0.3532    0.0000 C   0  0  0  0  0  0  0  0  0  0  0  0
    1.2285    1.1378    0.0000 C   0  0  0  0  0  0  0  0  0  0  0  0
    2.0461    1.2485    0.0000 C   0  0  0  0  0  0  0  0  0  0  0  0
    2.4478    0.5280    0.0000 C   0  0  0  0  0  0  0  0  0  0  0  0
    3.2727    0.5156    0.0000 C   0  0  0  0  0  0  0  0  0  0  0  0
    3.6959    1.2238    0.0000 C   0  0  0  0  0  0  0  0  0  0  0  0
    3.2941    1.9444    0.0000 C   0  0  0  0  0  0  0  0  0  0  0  0
    2.4692    1.9567    0.0000 C   0  0  0  0  0  0  0  0  0  0  0  0
    2.1793    2.7291    0.0000 C   0  0  0  0  0  0  0  0  0  0  0  0
    1.3947    2.9841    0.0000 O   0  0  0  0  0  0  0  0  0  0  0  0
    0.7062    2.5296    0.0000 C   0  0  0  0  0  0  0  0  0  0  0  0
    0.0316    3.0045    0.0000 C   0  0  0  0  0  0  0  0  0  0  0  0
   -0.7170    2.6577    0.0000 C   0  0  0  0  0  0  0  0  0  0  0  0
   -0.7910    1.8360    0.0000 C   0  0  0  0  0  0  0  0  0  0  0  0
   -0.1164    1.3611    0.0000 C   0  0  0  0  0  0  0  0  0  0  0  0
    0.6322    1.7079    0.0000 C   0  0  0  0  0  0  0  0  0  0  0  0
   -1.5395    1.4892    0.0000 C   0  0  0  0  0  0  0  0  0  0  0  0
   -1.6135    0.6675    0.0000 O   0  0  0  0  0  0  0  0  0  0  0  0
   -2.2142    1.9641    0.0000 O   0  0  0  0  0  0  0  0  0  0  0  0
  1  2  1  0  0  0  0
  2  3  1  0  0  0  0
  3  4  1  0  0  0  0
  4  5  2  0  0  0  0
  5  6  1  0  0  0  0
  6  7  2  0  0  0  0
  7  8  1  0  0  0  0
  3  8  2  0  0  0  0
  2  9  1  0  0  0  0
  9 10  1  0  0  0  0
 10 11  2  0  0  0  0
 11 12  1  0  0  0  0
 12 13  2  0  0  0  0
 13 14  1  0  0  0  0
  9 14  2  0  0  0  0
 13 15  1  0  0  0  0
 15 16  2  0  0  0  0
 16 17  1  0  0  0  0
 12 17  1  0  0  0  0
 17 18  1  0  0  0  0
 18 19  1  0  0  0  0
 19 20  2  0  0  0  0
 20 21  1  0  0  0  0
 21 22  1  0  0  0  0
 22 23  2  0  0  0  0
 23 24  1  0  0  0  0
 24 25  2  0  0  0  0
 25 26  1  0  0  0  0
 21 26  2  0  0  0  0
 26 27  1  0  0  0  0
 27 28  1  0  0  0  0
 28 29  1  0  0  0  0
 29 30  1  0  0  0  0
 30 31  2  0  0  0  0
 31 32  1  0  0  0  0
 32 33  2  0  0  0  0
 33 34  1  0  0  0  0
 20 34  1  0  0  0  0
 29 34  2  0  0  0  0
 32 35  1  0  0  0  0
 35 36  2  0  0  0  0
 35 37  1  0  0  0  0
M  END
>  <Name>
CHEMBL117821

>  <Target_Uniprot>
P21731

>  <CHEMBL Canonical SMILES>
OC(c1ccccc1)c2ccc3c(c2)ncn3C\C=C\4/c5ccccc5COc6ccc(cc46)C(=O)O

>  <PubMed ID>
1388208

$$$$

  Marvin  08031817322D          

 37 40  0  0  0  0            999 V2000
   -4.2333   -7.3639    0.0000 C   0  0  0  0  0  0  0  0  0  0  0  0
   -4.3008   -6.5376    0.0000 C   0  0  0  0  0  0  0  0  0  0  0  0
   -3.7126   -5.9538    0.0000 C   0  0  0  0  0  0  0  0  0  0  0  0
   -3.7203   -5.1269    0.0000 C   0  0  0  0  0  0  0  0  0  0  0  0
   -3.0814   -4.6049    0.0000 C   0  0  0  0  0  0  0  0  0  0  0  0
   -3.1394   -3.7836    0.0000 C   0  0  0  0  0  0  0  0  0  0  0  0
   -2.4863   -3.2825    0.0000 C   0  0  0  0  0  0  0  0  0  0  0  0
   -2.5480   -2.4607    0.0000 C   0  0  0  0  0  0  0  0  0  0  0  0
   -1.9027   -1.9478    0.0000 C   0  0  0  0  0  0  0  0  0  0  0  0
   -1.9375   -1.1268    0.0000 C   0  0  0  0  0  0  0  0  0  0  0  0
   -1.3064   -0.6019    0.0000 N   0  0  0  0  0  0  0  0  0  0  0  0
   -1.5484    0.2001    0.0000 C   0  0  0  0  0  0  0  0  0  0  0  0
   -2.3225    0.5564    0.0000 O   0  0  0  0  0  0  0  0  0  0  0  0
   -0.8177    0.6440    0.0000 C   0  0  0  0  0  0  0  0  0  0  0  0
   -0.0345    0.3904    0.0000 C   0  0  0  0  0  0  0  0  0  0  0  0
    0.4467    1.0617    0.0000 O   0  0  0  0  0  0  0  0  0  0  0  0
   -0.0169    1.7634    0.0000 C   0  0  0  0  0  0  0  0  0  0  0  0
   -0.8039    1.4929    0.0000 N   0  0  0  0  0  0  0  0  0  0  0  0
    0.3950    2.5970    0.0000 C   0  0  0  0  0  0  0  0  0  0  0  0
    1.2087    2.7874    0.0000 C   0  0  0  0  0  0  0  0  0  0  0  0
    1.7731    2.1917    0.0000 C   0  0  0  0  0  0  0  0  0  0  0  0
    1.8102    1.3992    0.0000 C   0  0  0  0  0  0  0  0  0  0  0  0
    1.0430    1.1112    0.0000 C   0  0  0  0  0  0  0  0  0  0  0  0
    0.9129    0.2877    0.0000 C   0  0  0  0  0  0  0  0  0  0  0  0
    1.5553   -0.2268    0.0000 C   0  0  0  0  0  0  0  0  0  0  0  0
    2.3294    0.0775    0.0000 C   0  0  0  0  0  0  0  0  0  0  0  0
    2.4556    0.9014    0.0000 C   0  0  0  0  0  0  0  0  0  0  0  0
    3.1872    1.2948    0.0000 C   0  0  0  0  0  0  0  0  0  0  0  0
    3.9049    0.8687    0.0000 C   0  0  0  0  0  0  0  0  0  0  0  0
    4.6569    1.2049    0.0000 C   0  0  0  0  0  0  0  0  0  0  0  0
    4.6310    2.0278    0.0000 O   0  0  0  0  0  0  0  0  0  0  0  0
    5.2561    0.6400    0.0000 O   0  0  0  0  0  0  0  0  0  0  0  0
    1.2541    3.6879    0.0000 C   0  0  0  0  0  0  0  0  0  0  0  0
    0.5720    4.4219    0.0000 C   0  0  0  0  0  0  0  0  0  0  0  0
   -0.2400    4.0914    0.0000 C   0  0  0  0  0  0  0  0  0  0  0  0
    0.0345    3.3371    0.0000 C   0  0  0  0  0  0  0  0  0  0  0  0
    0.7259    3.9805    0.0000 O   0  0  0  0  0  0  0  0  0  0  0  0
  1  2  1  0  0  0  0
  2  3  1  0  0  0  0
  3  4  1  0  0  0  0
  4  5  1  0  0  0  0
  5  6  1  0  0  0  0
  6  7  1  0  0  0  0
  7  8  1  0  0  0  0
  8  9  1  0  0  0  0
  9 10  1  0  0  0  0
 10 11  1  0  0  0  0
 11 12  1  0  0  0  0
 12 13  2  0  0  0  0
 12 14  1  0  0  0  0
 14 15  2  0  0  0  0
 15 16  1  0  0  0  0
 16 17  1  0  0  0  0
 17 18  2  0  0  0  0
 14 18  1  0  0  0  0
 17 19  1  0  0  0  0
 19 20  1  0  0  0  0
 20 21  1  0  0  0  0
 21 22  1  0  0  0  0
 22 23  1  0  0  0  0
 23 24  2  0  0  0  0
 24 25  1  0  0  0  0
 25 26  2  0  0  0  0
 26 27  1  0  0  0  0
 22 27  2  0  0  0  0
 27 28  1  0  0  0  0
 28 29  1  0  0  0  0
 29 30  1  0  0  0  0
 30 31  2  0  0  0  0
 30 32  1  0  0  0  0
 20 33  1  0  0  0  0
 33 34  1  0  0  0  0
 34 35  1  0  0  0  0
 35 36  1  0  0  0  0
 19 36  1  0  0  0  0
 36 37  1  0  0  0  0
 33 37  1  0  0  0  0
M  END
>  <Name>
CHEMBL418585

>  <Target_Uniprot>
P21731

>  <CHEMBL Canonical SMILES>
CCCCCCCCCCNC(=O)c1coc(n1)C2C(Cc3ccccc3CCC(=O)O)C4CCC2O4

>  <PubMed ID>
8496908

$$$$

  Marvin  08031817322D          

 30 33  0  0  0  0            999 V2000
    2.7291    0.3550    0.0000 O   0  0  0  0  0  0  0  0  0  0  0  0
    2.7291    1.1800    0.0000 C   0  0  0  0  0  0  0  0  0  0  0  0
    3.4435    1.5925    0.0000 O   0  0  0  0  0  0  0  0  0  0  0  0
    2.0146    1.5925    0.0000 C   0  0  0  0  0  0  0  0  0  0  0  0
    2.0146    2.4175    0.0000 C   0  0  0  0  0  0  0  0  0  0  0  0
    1.3001    2.8300    0.0000 C   0  0  0  0  0  0  0  0  0  0  0  0
    0.5856    2.4175    0.0000 C   0  0  0  0  0  0  0  0  0  0  0  0
   -0.0594    2.9319    0.0000 O   0  0  0  0  0  0  0  0  0  0  0  0
   -0.8637    2.7483    0.0000 C   0  0  0  0  0  0  0  0  0  0  0  0
   -1.2216    2.0050    0.0000 C   0  0  0  0  0  0  0  0  0  0  0  0
   -2.0443    2.0667    0.0000 C   0  0  0  0  0  0  0  0  0  0  0  0
   -2.5091    1.3851    0.0000 C   0  0  0  0  0  0  0  0  0  0  0  0
   -2.1511    0.6418    0.0000 C   0  0  0  0  0  0  0  0  0  0  0  0
   -1.3284    0.5801    0.0000 C   0  0  0  0  0  0  0  0  0  0  0  0
   -0.8637    1.2618    0.0000 C   0  0  0  0  0  0  0  0  0  0  0  0
   -0.0594    1.0782    0.0000 C   0  0  0  0  0  0  0  0  0  0  0  0
    0.1242    0.2739    0.0000 S   0  0  0  0  0  0  0  0  0  0  0  0
   -0.4806   -0.2873    0.0000 C   0  0  0  0  0  0  0  0  0  0  0  0
   -0.2970   -1.0916    0.0000 C   0  0  0  0  0  0  0  0  0  0  0  0
   -0.9017   -1.6527    0.0000 N   0  0  0  0  0  0  0  0  0  0  0  0
   -0.7182   -2.4571    0.0000 S   0  0  0  0  0  0  0  0  0  0  0  0
    0.0862   -2.2735    0.0000 O   0  0  0  0  0  0  0  0  0  0  0  0
   -1.5225   -2.6406    0.0000 O   0  0  0  0  0  0  0  0  0  0  0  0
   -0.5346   -3.2614    0.0000 C   0  0  0  0  0  0  0  0  0  0  0  0
   -1.0774   -3.8827    0.0000 C   0  0  0  0  0  0  0  0  0  0  0  0
   -0.6542   -4.5909    0.0000 C   0  0  0  0  0  0  0  0  0  0  0  0
    0.1501   -4.4073    0.0000 C   0  0  0  0  0  0  0  0  0  0  0  0
    0.2240   -3.5856    0.0000 S   0  0  0  0  0  0  0  0  0  0  0  0
    0.5856    1.5925    0.0000 C   0  0  0  0  0  0  0  0  0  0  0  0
    1.3001    1.1800    0.0000 C   0  0  0  0  0  0  0  0  0  0  0  0
  1  2  1  0  0  0  0
  2  3  2  0  0  0  0
  2  4  1  0  0  0  0
  4  5  1  0  0  0  0
  5  6  2  0  0  0  0
  6  7  1  0  0  0  0
  7  8  1  0  0  0  0
  8  9  1  0  0  0  0
  9 10  1  0  0  0  0
 10 11  1  0  0  0  0
 11 12  2  0  0  0  0
 12 13  1  0  0  0  0
 13 14  2  0  0  0  0
 14 15  1  0  0  0  0
 10 15  2  0  0  0  0
 15 16  1  0  0  0  0
 16 17  1  0  0  0  0
 17 18  1  0  0  0  0
 18 19  1  0  0  0  0
 19 20  1  0  0  0  0
 20 21  1  0  0  0  0
 21 22  2  0  0  0  0
 21 23  2  0  0  0  0
 21 24  1  0  0  0  0
 24 25  2  0  0  0  0
 25 26  1  0  0  0  0
 26 27  2  0  0  0  0
 27 28  1  0  0  0  0
 24 28  1  0  0  0  0
 16 29  1  0  0  0  0
  7 29  2  0  0  0  0
 29 30  1  0  0  0  0
  4 30  2  0  0  0  0
M  END
>  <Name>
CHEMBL326047

>  <Target_Uniprot>
P21731

>  <CHEMBL Canonical SMILES>
OC(=O)c1ccc2OCc3ccccc3C(SCCNS(=O)(=O)c4cccs4)c2c1

>  <PubMed ID>
1388207

$$$$

  Marvin  08031817322D          

 25 26  0  0  1  0            999 V2000
   -4.8223   -2.6859    0.0000 C   0  0  0  0  0  0  0  0  0  0  0  0
   -4.0195   -2.4836    0.0000 C   0  0  0  0  0  0  0  0  0  0  0  0
   -3.6292   -1.7534    0.0000 C   0  0  0  0  0  0  0  0  0  0  0  0
   -2.8516   -1.4689    0.0000 C   0  0  0  0  0  0  0  0  0  0  0  0
   -2.4994   -0.7198    0.0000 C   0  0  0  0  0  0  0  0  0  0  0  0
   -1.6803   -0.6215    0.0000 C   0  0  2  0  0  0  0  0  0  0  0  0
   -1.1367   -1.2401    0.0000 O   0  0  0  0  0  0  0  0  0  0  0  0
   -1.5093    0.1750    0.0000 C   0  0  0  0  0  0  0  0  0  0  0  0
   -0.7310    0.4171    0.0000 C   0  0  0  0  0  0  0  0  0  0  0  0
   -0.3874    1.1644    0.0000 C   0  0  2  0  0  0  0  0  0  0  0  0
    0.3725    1.4707    0.0000 C   0  0  1  0  0  0  0  0  0  0  0  0
    1.0270    0.9770    0.0000 C   0  0  0  0  0  0  0  0  0  0  0  0
    1.7682    1.2980    0.0000 C   0  0  0  0  0  0  0  0  0  0  0  0
    2.4339    0.8291    0.0000 C   0  0  0  0  0  0  0  0  0  0  0  0
    2.3975    0.0055    0.0000 C   0  0  0  0  0  0  0  0  0  0  0  0
    3.0061   -0.5553    0.0000 C   0  0  0  0  0  0  0  0  0  0  0  0
    3.0441   -1.3823    0.0000 C   0  0  0  0  0  0  0  0  0  0  0  0
    3.7059   -1.8798    0.0000 C   0  0  0  0  0  0  0  0  0  0  0  0
    4.4111   -1.4459    0.0000 O   0  0  0  0  0  0  0  0  0  0  0  0
    3.5180   -2.6861    0.0000 O   0  0  0  0  0  0  0  0  0  0  0  0
    0.2643    2.3592    0.0000 C   0  0  1  0  0  0  0  0  0  0  0  0
   -0.2469    3.1400    0.0000 C   0  0  0  0  0  0  0  0  0  0  0  0
   -1.0746    2.8152    0.0000 O   0  0  0  0  0  0  0  0  0  0  0  0
   -0.9214    1.8879    0.0000 C   0  0  2  0  0  0  0  0  0  0  0  0
   -0.4391    2.3833    0.0000 C   0  0  0  0  0  0  0  0  0  0  0  0
  1  2  1  0  0  0  0
  2  3  1  0  0  0  0
  3  4  1  0  0  0  0
  4  5  1  0  0  0  0
  5  6  1  0  0  0  0
  6  7  1  1  0  0  0
  6  8  1  0  0  0  0
  8  9  2  0  0  0  0
 10  9  1  1  0  0  0
 10 11  1  0  0  0  0
 11 12  1  6  0  0  0
 12 13  1  0  0  0  0
 13 14  2  0  0  0  0
 14 15  1  0  0  0  0
 15 16  1  0  0  0  0
 16 17  1  0  0  0  0
 17 18  1  0  0  0  0
 18 19  2  0  0  0  0
 18 20  1  0  0  0  0
 11 21  1  0  0  0  0
 21 22  1  0  0  0  0
 22 23  1  0  0  0  0
 23 24  1  0  0  0  0
 10 24  1  0  0  0  0
 24 25  1  1  0  0  0
 21 25  1  1  0  0  0
M  END
>  <Name>
CHEMBL521784

>  <Target_Uniprot>
P21731

>  <CHEMBL Canonical SMILES>
CCCCC[C@H](O)\C=C\[C@@H]1[C@@H](C\C=C/CCCC(=O)O)[C@H]2CO[C@@H]1C2

>  <PubMed ID>
8496700

$$$$

  Marvin  08031817322D          

 29 32  0  0  0  0            999 V2000
    2.8526   -0.9634    0.0000 C   0  0  0  0  0  0  0  0  0  0  0  0
    2.0276   -0.9634    0.0000 S   0  0  0  0  0  0  0  0  0  0  0  0
    1.2026   -0.9634    0.0000 O   0  0  0  0  0  0  0  0  0  0  0  0
    2.0276   -1.7884    0.0000 O   0  0  0  0  0  0  0  0  0  0  0  0
    2.0276   -0.1384    0.0000 C   0  0  0  0  0  0  0  0  0  0  0  0
    2.7421    0.2741    0.0000 C   0  0  0  0  0  0  0  0  0  0  0  0
    2.7421    1.0991    0.0000 C   0  0  0  0  0  0  0  0  0  0  0  0
    2.0276    1.5116    0.0000 C   0  0  0  0  0  0  0  0  0  0  0  0
    1.3131    1.0991    0.0000 C   0  0  0  0  0  0  0  0  0  0  0  0
    0.5285    1.3540    0.0000 C   0  0  0  0  0  0  0  0  0  0  0  0
    0.1929    2.1077    0.0000 C   0  0  0  0  0  0  0  0  0  0  0  0
   -0.6275    2.1939    0.0000 C   0  0  0  0  0  0  0  0  0  0  0  0
   -1.1125    1.5265    0.0000 C   0  0  0  0  0  0  0  0  0  0  0  0
   -0.7769    0.7728    0.0000 C   0  0  0  0  0  0  0  0  0  0  0  0
   -1.2618    0.1054    0.0000 C   0  0  0  0  0  0  0  0  0  0  0  0
   -2.0823    0.1916    0.0000 C   0  0  0  0  0  0  0  0  0  0  0  0
   -2.4179    0.9453    0.0000 O   0  0  0  0  0  0  0  0  0  0  0  0
   -2.5672   -0.4758    0.0000 O   0  0  0  0  0  0  0  0  0  0  0  0
    0.0436    0.6866    0.0000 C   0  0  0  0  0  0  0  0  0  0  0  0
    0.5285    0.0192    0.0000 N   0  0  0  0  0  0  0  0  0  0  0  0
    0.2736   -0.7655    0.0000 C   0  0  0  0  0  0  0  0  0  0  0  0
   -0.5334   -0.9370    0.0000 C   0  0  0  0  0  0  0  0  0  0  0  0
   -1.0855   -0.3239    0.0000 C   0  0  0  0  0  0  0  0  0  0  0  0
   -1.8924   -0.4954    0.0000 C   0  0  0  0  0  0  0  0  0  0  0  0
   -2.1474   -1.2800    0.0000 C   0  0  0  0  0  0  0  0  0  0  0  0
   -2.9543   -1.4516    0.0000 Cl  0  0  0  0  0  0  0  0  0  0  0  0
   -1.5953   -1.8931    0.0000 C   0  0  0  0  0  0  0  0  0  0  0  0
   -0.7884   -1.7216    0.0000 C   0  0  0  0  0  0  0  0  0  0  0  0
    1.3131    0.2741    0.0000 C   0  0  0  0  0  0  0  0  0  0  0  0
  1  2  1  0  0  0  0
  2  3  2  0  0  0  0
  2  4  2  0  0  0  0
  2  5  1  0  0  0  0
  5  6  2  0  0  0  0
  6  7  1  0  0  0  0
  7  8  2  0  0  0  0
  8  9  1  0  0  0  0
  9 10  1  0  0  0  0
 10 11  1  0  0  0  0
 11 12  1  0  0  0  0
 12 13  1  0  0  0  0
 13 14  1  0  0  0  0
 14 15  1  0  0  0  0
 15 16  1  0  0  0  0
 16 17  2  0  0  0  0
 16 18  1  0  0  0  0
 14 19  1  0  0  0  0
 10 19  2  0  0  0  0
 19 20  1  0  0  0  0
 20 21  1  0  0  0  0
 21 22  1  0  0  0  0
 22 23  1  0  0  0  0
 23 24  2  0  0  0  0
 24 25  1  0  0  0  0
 25 26  1  0  0  0  0
 25 27  2  0  0  0  0
 27 28  1  0  0  0  0
 22 28  2  0  0  0  0
 20 29  1  0  0  0  0
  5 29  1  0  0  0  0
  9 29  2  0  0  0  0
M  END
>  <Name>
CHEMBL210471

>  <Target_Uniprot>
P21731

>  <CHEMBL Canonical SMILES>
CS(=O)(=O)c1cccc2c3CCCC(CC(=O)O)c3n(Cc4ccc(Cl)cc4)c12

>  <PubMed ID>
16529930

$$$$

  Marvin  08031817322D          

 31 34  0  0  0  0            999 V2000
    3.0038    0.4712    0.0000 O   0  0  0  0  0  0  0  0  0  0  0  0
    3.0038    1.2962    0.0000 C   0  0  0  0  0  0  0  0  0  0  0  0
    3.7183    1.7087    0.0000 O   0  0  0  0  0  0  0  0  0  0  0  0
    2.2894    1.7087    0.0000 C   0  0  0  0  0  0  0  0  0  0  0  0
    2.2894    2.5337    0.0000 C   0  0  0  0  0  0  0  0  0  0  0  0
    1.5749    2.9462    0.0000 C   0  0  0  0  0  0  0  0  0  0  0  0
    0.8604    2.5337    0.0000 C   0  0  0  0  0  0  0  0  0  0  0  0
    0.2154    3.0481    0.0000 O   0  0  0  0  0  0  0  0  0  0  0  0
   -0.5889    2.8645    0.0000 C   0  0  0  0  0  0  0  0  0  0  0  0
   -0.9468    2.1212    0.0000 C   0  0  0  0  0  0  0  0  0  0  0  0
   -1.7695    2.1828    0.0000 C   0  0  0  0  0  0  0  0  0  0  0  0
   -2.2343    1.5012    0.0000 C   0  0  0  0  0  0  0  0  0  0  0  0
   -1.8763    0.7579    0.0000 C   0  0  0  0  0  0  0  0  0  0  0  0
   -1.0536    0.6962    0.0000 C   0  0  0  0  0  0  0  0  0  0  0  0
   -0.5889    1.3779    0.0000 C   0  0  0  0  0  0  0  0  0  0  0  0
    0.2154    1.1943    0.0000 C   0  0  0  0  0  0  0  0  0  0  0  0
    0.3990    0.3900    0.0000 S   0  0  0  0  0  0  0  0  0  0  0  0
   -0.2058   -0.1712    0.0000 C   0  0  0  0  0  0  0  0  0  0  0  0
   -0.0222   -0.9755    0.0000 C   0  0  0  0  0  0  0  0  0  0  0  0
   -0.6270   -1.5366    0.0000 N   0  0  0  0  0  0  0  0  0  0  0  0
   -0.4434   -2.3409    0.0000 C   0  0  0  0  0  0  0  0  0  0  0  0
    0.3450   -2.5841    0.0000 O   0  0  0  0  0  0  0  0  0  0  0  0
   -1.0481   -2.9021    0.0000 C   0  0  0  0  0  0  0  0  0  0  0  0
   -1.8365   -2.6589    0.0000 C   0  0  0  0  0  0  0  0  0  0  0  0
   -2.4413   -3.2200    0.0000 C   0  0  0  0  0  0  0  0  0  0  0  0
   -2.2577   -4.0244    0.0000 C   0  0  0  0  0  0  0  0  0  0  0  0
   -1.4693   -4.2675    0.0000 C   0  0  0  0  0  0  0  0  0  0  0  0
   -0.8646   -3.7064    0.0000 C   0  0  0  0  0  0  0  0  0  0  0  0
   -0.0762   -3.9496    0.0000 O   0  0  0  0  0  0  0  0  0  0  0  0
    0.8604    1.7087    0.0000 C   0  0  0  0  0  0  0  0  0  0  0  0
    1.5749    1.2962    0.0000 C   0  0  0  0  0  0  0  0  0  0  0  0
  1  2  1  0  0  0  0
  2  3  2  0  0  0  0
  2  4  1  0  0  0  0
  4  5  1  0  0  0  0
  5  6  2  0  0  0  0
  6  7  1  0  0  0  0
  7  8  1  0  0  0  0
  8  9  1  0  0  0  0
  9 10  1  0  0  0  0
 10 11  1  0  0  0  0
 11 12  2  0  0  0  0
 12 13  1  0  0  0  0
 13 14  2  0  0  0  0
 14 15  1  0  0  0  0
 10 15  2  0  0  0  0
 15 16  1  0  0  0  0
 16 17  1  0  0  0  0
 17 18  1  0  0  0  0
 18 19  1  0  0  0  0
 19 20  1  0  0  0  0
 20 21  1  0  0  0  0
 21 22  2  0  0  0  0
 21 23  1  0  0  0  0
 23 24  1  0  0  0  0
 24 25  2  0  0  0  0
 25 26  1  0  0  0  0
 26 27  2  0  0  0  0
 27 28  1  0  0  0  0
 23 28  2  0  0  0  0
 28 29  1  0  0  0  0
 16 30  1  0  0  0  0
  7 30  2  0  0  0  0
 30 31  1  0  0  0  0
  4 31  2  0  0  0  0
M  END
>  <Name>
CHEMBL324256

>  <Target_Uniprot>
P21731

>  <CHEMBL Canonical SMILES>
OC(=O)c1ccc2OCc3ccccc3C(SCCNC(=O)c4ccccc4O)c2c1

>  <PubMed ID>
1388207

$$$$

  Marvin  08031817322D          

 27 29  0  0  0  0            999 V2000
   -1.6385   -4.0435    0.0000 C   0  0  0  0  0  0  0  0  0  0  0  0
   -1.8935   -3.2589    0.0000 S   0  0  0  0  0  0  0  0  0  0  0  0
   -1.3415   -2.6458    0.0000 C   0  0  0  0  0  0  0  0  0  0  0  0
   -0.5345   -2.8173    0.0000 C   0  0  0  0  0  0  0  0  0  0  0  0
    0.0176   -2.2042    0.0000 C   0  0  0  0  0  0  0  0  0  0  0  0
   -0.2374   -1.4196    0.0000 C   0  0  0  0  0  0  0  0  0  0  0  0
    0.3146   -0.8065    0.0000 C   0  0  0  0  0  0  0  0  0  0  0  0
    0.0597   -0.0219    0.0000 N   0  0  0  0  0  0  0  0  0  0  0  0
    0.5446    0.6456    0.0000 C   0  0  0  0  0  0  0  0  0  0  0  0
    1.3696    0.6456    0.0000 C   0  0  0  0  0  0  0  0  0  0  0  0
    1.7821    1.3601    0.0000 C   0  0  0  0  0  0  0  0  0  0  0  0
    1.0677    1.7726    0.0000 C   0  0  0  0  0  0  0  0  0  0  0  0
    2.4966    0.9476    0.0000 C   0  0  0  0  0  0  0  0  0  0  0  0
    2.1946    2.0745    0.0000 C   0  0  0  0  0  0  0  0  0  0  0  0
    3.0196    2.0745    0.0000 C   0  0  0  0  0  0  0  0  0  0  0  0
    3.4321    1.3601    0.0000 O   0  0  0  0  0  0  0  0  0  0  0  0
    3.4321    2.7890    0.0000 O   0  0  0  0  0  0  0  0  0  0  0  0
    0.0597    1.3130    0.0000 N   0  0  0  0  0  0  0  0  0  0  0  0
   -0.7249    1.0581    0.0000 C   0  0  0  0  0  0  0  0  0  0  0  0
   -1.4394    1.4706    0.0000 C   0  0  0  0  0  0  0  0  0  0  0  0
   -2.1539    1.0581    0.0000 C   0  0  0  0  0  0  0  0  0  0  0  0
   -2.8683    1.4706    0.0000 F   0  0  0  0  0  0  0  0  0  0  0  0
   -2.1539    0.2331    0.0000 C   0  0  0  0  0  0  0  0  0  0  0  0
   -1.4394   -0.1794    0.0000 C   0  0  0  0  0  0  0  0  0  0  0  0
   -0.7249    0.2331    0.0000 C   0  0  0  0  0  0  0  0  0  0  0  0
   -1.0444   -1.2480    0.0000 C   0  0  0  0  0  0  0  0  0  0  0  0
   -1.5964   -1.8611    0.0000 C   0  0  0  0  0  0  0  0  0  0  0  0
  1  2  1  0  0  0  0
  2  3  1  0  0  0  0
  3  4  1  0  0  0  0
  4  5  2  0  0  0  0
  5  6  1  0  0  0  0
  6  7  1  0  0  0  0
  7  8  1  0  0  0  0
  8  9  1  0  0  0  0
  9 10  1  0  0  0  0
 10 11  1  0  0  0  0
 11 12  1  0  0  0  0
 11 13  1  0  0  0  0
 11 14  1  0  0  0  0
 14 15  1  0  0  0  0
 15 16  2  0  0  0  0
 15 17  1  0  0  0  0
  9 18  2  0  0  0  0
 18 19  1  0  0  0  0
 19 20  1  0  0  0  0
 20 21  2  0  0  0  0
 21 22  1  0  0  0  0
 21 23  1  0  0  0  0
 23 24  2  0  0  0  0
 24 25  1  0  0  0  0
  8 25  1  0  0  0  0
 19 25  2  0  0  0  0
  6 26  2  0  0  0  0
 26 27  1  0  0  0  0
  3 27  2  0  0  0  0
M  END
>  <Name>
CHEMBL418730

>  <Target_Uniprot>
P21731

>  <CHEMBL Canonical SMILES>
CSc1ccc(Cn2c(CC(C)(C)CC(=O)O)nc3cc(F)ccc23)cc1

>  <PubMed ID>
8487256

$$$$

  Marvin  08031817322D          

 35 38  0  0  0  0            999 V2000
   -0.3019   -1.9534    0.0000 O   0  0  0  0  0  0  0  0  0  0  0  0
    0.1943   -2.6210    0.0000 C   0  0  0  0  0  0  0  0  0  0  0  0
    0.0075   -3.4304    0.0000 O   0  0  0  0  0  0  0  0  0  0  0  0
    0.9878   -2.3950    0.0000 C   0  0  0  0  0  0  0  0  0  0  0  0
    1.3967   -1.6879    0.0000 C   0  0  0  0  0  0  0  0  0  0  0  0
    2.1858   -1.4674    0.0000 C   0  0  0  0  0  0  0  0  0  0  0  0
    2.7410   -2.0845    0.0000 C   0  0  0  0  0  0  0  0  0  0  0  0
    3.5560   -1.9153    0.0000 C   0  0  0  0  0  0  0  0  0  0  0  0
    3.8121   -1.1289    0.0000 C   0  0  0  0  0  0  0  0  0  0  0  0
    3.2544   -0.5124    0.0000 C   0  0  0  0  0  0  0  0  0  0  0  0
    2.4423   -0.6875    0.0000 C   0  0  0  0  0  0  0  0  0  0  0  0
    1.9434   -0.0510    0.0000 C   0  0  0  0  0  0  0  0  0  0  0  0
    2.0950    0.7136    0.0000 C   0  0  0  0  0  0  0  0  0  0  0  0
    2.9607    0.9039    0.0000 C   0  0  0  0  0  0  0  0  0  0  0  0
    3.5047    1.7174    0.0000 C   0  0  0  0  0  0  0  0  0  0  0  0
    2.9477    2.4282    0.0000 C   0  0  0  0  0  0  0  0  0  0  0  0
    2.2778    1.9866    0.0000 C   0  0  0  0  0  0  0  0  0  0  0  0
    3.1036    1.5060    0.0000 O   0  0  0  0  0  0  0  0  0  0  0  0
    1.6850    1.4204    0.0000 C   0  0  0  0  0  0  0  0  0  0  0  0
    0.8107    1.4073    0.0000 C   0  0  0  0  0  0  0  0  0  0  0  0
    0.3180    2.0801    0.0000 O   0  0  0  0  0  0  0  0  0  0  0  0
   -0.4708    1.8244    0.0000 C   0  0  0  0  0  0  0  0  0  0  0  0
   -0.4704    0.9972    0.0000 C   0  0  0  0  0  0  0  0  0  0  0  0
    0.3149    0.7368    0.0000 N   0  0  0  0  0  0  0  0  0  0  0  0
   -1.0678    0.4430    0.0000 C   0  0  0  0  0  0  0  0  0  0  0  0
   -1.0647   -0.3763    0.0000 O   0  0  0  0  0  0  0  0  0  0  0  0
   -1.8137    0.7792    0.0000 N   0  0  0  0  0  0  0  0  0  0  0  0
   -2.5450    0.4053    0.0000 C   0  0  0  0  0  0  0  0  0  0  0  0
   -3.3316    0.6408    0.0000 C   0  0  0  0  0  0  0  0  0  0  0  0
   -4.0492    0.2439    0.0000 C   0  0  0  0  0  0  0  0  0  0  0  0
   -4.8376    0.4718    0.0000 C   0  0  0  0  0  0  0  0  0  0  0  0
   -5.5153   -0.0012    0.0000 C   0  0  0  0  0  0  0  0  0  0  0  0
   -4.9583   -0.6230    0.0000 F   0  0  0  0  0  0  0  0  0  0  0  0
   -5.9302    0.7223    0.0000 F   0  0  0  0  0  0  0  0  0  0  0  0
   -6.1829   -0.4928    0.0000 F   0  0  0  0  0  0  0  0  0  0  0  0
  1  2  1  0  0  0  0
  2  3  2  0  0  0  0
  2  4  1  0  0  0  0
  4  5  1  0  0  0  0
  5  6  1  0  0  0  0
  6  7  1  0  0  0  0
  7  8  2  0  0  0  0
  8  9  1  0  0  0  0
  9 10  2  0  0  0  0
 10 11  1  0  0  0  0
  6 11  2  0  0  0  0
 11 12  1  0  0  0  0
 12 13  1  0  0  0  0
 13 14  1  0  0  0  0
 14 15  1  0  0  0  0
 15 16  1  0  0  0  0
 16 17  1  0  0  0  0
 17 18  1  0  0  0  0
 14 18  1  0  0  0  0
 17 19  1  0  0  0  0
 13 19  1  0  0  0  0
 19 20  1  0  0  0  0
 20 21  1  0  0  0  0
 21 22  1  0  0  0  0
 22 23  2  0  0  0  0
 23 24  1  0  0  0  0
 20 24  2  0  0  0  0
 23 25  1  0  0  0  0
 25 26  2  0  0  0  0
 25 27  1  0  0  0  0
 27 28  1  0  0  0  0
 28 29  1  0  0  0  0
 29 30  1  0  0  0  0
 30 31  1  0  0  0  0
 31 32  1  0  0  0  0
 32 33  1  0  0  0  0
 32 34  1  0  0  0  0
 32 35  1  0  0  0  0
M  END
>  <Name>
CHEMBL281293

>  <Target_Uniprot>
P21731

>  <CHEMBL Canonical SMILES>
OC(=O)CCc1ccccc1CC2C3CCC(O3)C2c4occ(n4)C(=O)NCCCCC(F)(F)F

>  <PubMed ID>
8496908

$$$$

  Marvin  08031817322D          

 34 37  0  0  0  0            999 V2000
   -0.3942   -2.0132    0.0000 O   0  0  0  0  0  0  0  0  0  0  0  0
    0.0931   -2.6768    0.0000 C   0  0  0  0  0  0  0  0  0  0  0  0
   -0.0874   -3.4795    0.0000 O   0  0  0  0  0  0  0  0  0  0  0  0
    0.8809   -2.4640    0.0000 C   0  0  0  0  0  0  0  0  0  0  0  0
    1.2794   -1.7503    0.0000 C   0  0  0  0  0  0  0  0  0  0  0  0
    2.0745   -1.5238    0.0000 C   0  0  0  0  0  0  0  0  0  0  0  0
    2.6277   -2.1363    0.0000 C   0  0  0  0  0  0  0  0  0  0  0  0
    3.4429   -1.9663    0.0000 C   0  0  0  0  0  0  0  0  0  0  0  0
    3.6975   -1.1865    0.0000 C   0  0  0  0  0  0  0  0  0  0  0  0
    3.1465   -0.5743    0.0000 C   0  0  0  0  0  0  0  0  0  0  0  0
    2.3391   -0.7535    0.0000 C   0  0  0  0  0  0  0  0  0  0  0  0
    1.8488   -0.1338    0.0000 C   0  0  0  0  0  0  0  0  0  0  0  0
    1.9642    0.6696    0.0000 C   0  0  0  0  0  0  0  0  0  0  0  0
    2.7926    0.9964    0.0000 C   0  0  0  0  0  0  0  0  0  0  0  0
    3.4013    1.6951    0.0000 C   0  0  0  0  0  0  0  0  0  0  0  0
    2.8707    2.4067    0.0000 C   0  0  0  0  0  0  0  0  0  0  0  0
    2.0331    2.0255    0.0000 C   0  0  0  0  0  0  0  0  0  0  0  0
    2.6440    1.6772    0.0000 O   0  0  0  0  0  0  0  0  0  0  0  0
    1.4930    1.3306    0.0000 C   0  0  0  0  0  0  0  0  0  0  0  0
    0.7080    1.3407    0.0000 C   0  0  0  0  0  0  0  0  0  0  0  0
    0.2415    2.0066    0.0000 O   0  0  0  0  0  0  0  0  0  0  0  0
   -0.5386    1.7545    0.0000 C   0  0  0  0  0  0  0  0  0  0  0  0
   -0.5402    0.9216    0.0000 C   0  0  0  0  0  0  0  0  0  0  0  0
    0.2347    0.6677    0.0000 N   0  0  0  0  0  0  0  0  0  0  0  0
   -1.1489    0.3660    0.0000 C   0  0  0  0  0  0  0  0  0  0  0  0
   -1.1543   -0.4557    0.0000 O   0  0  0  0  0  0  0  0  0  0  0  0
   -1.8918    0.7165    0.0000 N   0  0  0  0  0  0  0  0  0  0  0  0
   -2.6155    0.3240    0.0000 C   0  0  0  0  0  0  0  0  0  0  0  0
   -3.3967    0.5877    0.0000 C   0  0  0  0  0  0  0  0  0  0  0  0
   -4.0988    0.1543    0.0000 C   0  0  0  0  0  0  0  0  0  0  0  0
   -4.8791    0.4220    0.0000 C   0  0  0  0  0  0  0  0  0  0  0  0
   -5.6000    0.0206    0.0000 C   0  0  0  0  0  0  0  0  0  0  0  0
   -6.3617    0.3375    0.0000 C   0  0  0  0  0  0  0  0  0  0  0  0
   -7.1062    0.6931    0.0000 C   0  0  0  0  0  0  0  0  0  0  0  0
  1  2  1  0  0  0  0
  2  3  2  0  0  0  0
  2  4  1  0  0  0  0
  4  5  1  0  0  0  0
  5  6  1  0  0  0  0
  6  7  1  0  0  0  0
  7  8  2  0  0  0  0
  8  9  1  0  0  0  0
  9 10  2  0  0  0  0
 10 11  1  0  0  0  0
  6 11  2  0  0  0  0
 11 12  1  0  0  0  0
 12 13  1  0  0  0  0
 13 14  1  0  0  0  0
 14 15  1  0  0  0  0
 15 16  1  0  0  0  0
 16 17  1  0  0  0  0
 17 18  1  0  0  0  0
 14 18  1  0  0  0  0
 17 19  1  0  0  0  0
 13 19  1  0  0  0  0
 19 20  1  0  0  0  0
 20 21  1  0  0  0  0
 21 22  1  0  0  0  0
 22 23  2  0  0  0  0
 23 24  1  0  0  0  0
 20 24  2  0  0  0  0
 23 25  1  0  0  0  0
 25 26  2  0  0  0  0
 25 27  1  0  0  0  0
 27 28  1  0  0  0  0
 28 29  1  0  0  0  0
 29 30  1  0  0  0  0
 30 31  1  0  0  0  0
 31 32  1  0  0  0  0
 32 33  1  0  0  0  0
 33 34  3  0  0  0  0
M  END
>  <Name>
CHEMBL416943

>  <Target_Uniprot>
P21731

>  <CHEMBL Canonical SMILES>
OC(=O)CCc1ccccc1CC2C3CCC(O3)C2c4occ(n4)C(=O)NCCCCCC#C

>  <PubMed ID>
8496908

$$$$

  Marvin  08031817322D          

 33 36  0  0  0  0            999 V2000
    0.9852   -2.7356    0.0000 C   0  0  0  0  0  0  0  0  0  0  0  0
    0.3721   -2.1836    0.0000 C   0  0  0  0  0  0  0  0  0  0  0  0
    0.9241   -1.5705    0.0000 S   0  0  0  0  0  0  0  0  0  0  0  0
    0.6692   -0.7858    0.0000 C   0  0  0  0  0  0  0  0  0  0  0  0
    1.2212   -0.1727    0.0000 C   0  0  0  0  0  0  0  0  0  0  0  0
    0.9662    0.6119    0.0000 C   0  0  0  0  0  0  0  0  0  0  0  0
    1.4512    1.2793    0.0000 C   0  0  0  0  0  0  0  0  0  0  0  0
    2.2762    1.2793    0.0000 C   0  0  0  0  0  0  0  0  0  0  0  0
    2.6887    1.9938    0.0000 O   0  0  0  0  0  0  0  0  0  0  0  0
    0.9662    1.9468    0.0000 O   0  0  0  0  0  0  0  0  0  0  0  0
    0.1816    1.6918    0.0000 C   0  0  0  0  0  0  0  0  0  0  0  0
   -0.5328    2.1043    0.0000 C   0  0  0  0  0  0  0  0  0  0  0  0
   -0.5328    2.9293    0.0000 O   0  0  0  0  0  0  0  0  0  0  0  0
    0.1816    3.3418    0.0000 C   0  0  0  0  0  0  0  0  0  0  0  0
    0.1816    4.1668    0.0000 C   0  0  0  0  0  0  0  0  0  0  0  0
   -0.5328    4.5793    0.0000 O   0  0  0  0  0  0  0  0  0  0  0  0
    0.8961    4.5793    0.0000 O   0  0  0  0  0  0  0  0  0  0  0  0
   -1.2473    1.6918    0.0000 C   0  0  0  0  0  0  0  0  0  0  0  0
   -1.2473    0.8668    0.0000 C   0  0  0  0  0  0  0  0  0  0  0  0
   -0.5328    0.4543    0.0000 C   0  0  0  0  0  0  0  0  0  0  0  0
    0.1816    0.8668    0.0000 C   0  0  0  0  0  0  0  0  0  0  0  0
   -0.2410   -1.6315    0.0000 C   0  0  0  0  0  0  0  0  0  0  0  0
   -0.0695   -0.8245    0.0000 C   0  0  0  0  0  0  0  0  0  0  0  0
   -0.6826   -0.2725    0.0000 C   0  0  0  0  0  0  0  0  0  0  0  0
   -1.4672   -0.5275    0.0000 C   0  0  0  0  0  0  0  0  0  0  0  0
   -1.6387   -1.3344    0.0000 C   0  0  0  0  0  0  0  0  0  0  0  0
   -1.0257   -1.8865    0.0000 C   0  0  0  0  0  0  0  0  0  0  0  0
   -0.1800   -2.7966    0.0000 C   0  0  0  0  0  0  0  0  0  0  0  0
   -0.9869   -2.6251    0.0000 C   0  0  0  0  0  0  0  0  0  0  0  0
   -1.5390   -3.2382    0.0000 C   0  0  0  0  0  0  0  0  0  0  0  0
   -1.2840   -4.0228    0.0000 C   0  0  0  0  0  0  0  0  0  0  0  0
   -0.4771   -4.1944    0.0000 C   0  0  0  0  0  0  0  0  0  0  0  0
    0.0750   -3.5813    0.0000 C   0  0  0  0  0  0  0  0  0  0  0  0
  1  2  1  0  0  0  0
  2  3  1  0  0  0  0
  3  4  1  0  0  0  0
  4  5  1  0  0  0  0
  5  6  1  0  0  0  0
  6  7  2  0  0  0  0
  7  8  1  0  0  0  0
  8  9  1  0  0  0  0
  7 10  1  0  0  0  0
 10 11  1  0  0  0  0
 11 12  1  0  0  0  0
 12 13  1  0  0  0  0
 13 14  1  0  0  0  0
 14 15  1  0  0  0  0
 15 16  2  0  0  0  0
 15 17  1  0  0  0  0
 12 18  2  0  0  0  0
 18 19  1  0  0  0  0
 19 20  2  0  0  0  0
 20 21  1  0  0  0  0
  6 21  1  0  0  0  0
 11 21  2  0  0  0  0
  2 22  1  0  0  0  0
 22 23  1  0  0  0  0
 23 24  2  0  0  0  0
 24 25  1  0  0  0  0
 25 26  2  0  0  0  0
 26 27  1  0  0  0  0
 22 27  2  0  0  0  0
  2 28  1  0  0  0  0
 28 29  1  0  0  0  0
 29 30  2  0  0  0  0
 30 31  1  0  0  0  0
 31 32  2  0  0  0  0
 32 33  1  0  0  0  0
 28 33  2  0  0  0  0
M  END
>  <Name>
CHEMBL190236

>  <Target_Uniprot>
P21731

>  <CHEMBL Canonical SMILES>
CC(SCCc1c(CO)oc2c(OCC(=O)O)cccc12)(c3ccccc3)c4ccccc4

>  <PubMed ID>
16078846

$$$$

  Marvin  08031817322D          

 29 30  0  0  0  0            999 V2000
   -1.7985   -5.1349    0.0000 C   0  0  0  0  0  0  0  0  0  0  0  0
   -1.0840   -4.7224    0.0000 C   0  0  0  0  0  0  0  0  0  0  0  0
   -1.0840   -3.8974    0.0000 C   0  0  0  0  0  0  0  0  0  0  0  0
   -0.3696   -3.4849    0.0000 C   0  0  0  0  0  0  0  0  0  0  0  0
   -0.3696   -2.6599    0.0000 C   0  0  0  0  0  0  0  0  0  0  0  0
    0.3449   -2.2474    0.0000 N   0  0  0  0  0  0  0  0  0  0  0  0
    0.3449   -1.4224    0.0000 C   0  0  0  0  0  0  0  0  0  0  0  0
   -0.3696   -1.0099    0.0000 O   0  0  0  0  0  0  0  0  0  0  0  0
    1.0594   -1.0099    0.0000 N   0  0  0  0  0  0  0  0  0  0  0  0
    1.0594   -0.1849    0.0000 S   0  0  0  0  0  0  0  0  0  0  0  0
    1.8844   -0.1849    0.0000 O   0  0  0  0  0  0  0  0  0  0  0  0
    0.2344   -0.1849    0.0000 O   0  0  0  0  0  0  0  0  0  0  0  0
    1.0594    0.6401    0.0000 C   0  0  0  0  0  0  0  0  0  0  0  0
    1.7739    1.0526    0.0000 C   0  0  0  0  0  0  0  0  0  0  0  0
    1.7739    1.8776    0.0000 C   0  0  0  0  0  0  0  0  0  0  0  0
    1.0594    2.2901    0.0000 C   0  0  0  0  0  0  0  0  0  0  0  0
    0.3449    1.8776    0.0000 C   0  0  0  0  0  0  0  0  0  0  0  0
    0.3449    1.0526    0.0000 C   0  0  0  0  0  0  0  0  0  0  0  0
   -0.3696    0.6401    0.0000 N   0  0  0  0  0  0  0  0  0  0  0  0
   -1.0840    1.0526    0.0000 C   0  0  0  0  0  0  0  0  0  0  0  0
   -1.0840    1.8776    0.0000 C   0  0  0  0  0  0  0  0  0  0  0  0
   -1.7985    2.2901    0.0000 C   0  0  0  0  0  0  0  0  0  0  0  0
   -2.5130    1.8776    0.0000 C   0  0  0  0  0  0  0  0  0  0  0  0
   -2.5130    1.0526    0.0000 C   0  0  0  0  0  0  0  0  0  0  0  0
   -3.2274    0.6401    0.0000 C   0  0  0  0  0  0  0  0  0  0  0  0
   -1.7985    0.6401    0.0000 C   0  0  0  0  0  0  0  0  0  0  0  0
    2.4883    2.2901    0.0000 N   0  3  0  0  0  0  0  0  0  0  0  0
    2.4883    3.1151    0.0000 O   0  0  0  0  0  0  0  0  0  0  0  0
    3.2028    1.8776    0.0000 O   0  5  0  0  0  0  0  0  0  0  0  0
  1  2  1  0  0  0  0
  2  3  1  0  0  0  0
  3  4  1  0  0  0  0
  4  5  1  0  0  0  0
  5  6  1  0  0  0  0
  6  7  1  0  0  0  0
  7  8  2  0  0  0  0
  7  9  1  0  0  0  0
  9 10  1  0  0  0  0
 10 11  2  0  0  0  0
 10 12  2  0  0  0  0
 10 13  1  0  0  0  0
 13 14  1  0  0  0  0
 14 15  2  0  0  0  0
 15 16  1  0  0  0  0
 16 17  2  0  0  0  0
 17 18  1  0  0  0  0
 13 18  2  0  0  0  0
 18 19  1  0  0  0  0
 19 20  1  0  0  0  0
 20 21  1  0  0  0  0
 21 22  2  0  0  0  0
 22 23  1  0  0  0  0
 23 24  2  0  0  0  0
 24 25  1  0  0  0  0
 24 26  1  0  0  0  0
 20 26  2  0  0  0  0
 15 27  1  0  0  0  0
 27 28  2  0  0  0  0
 27 29  1  0  0  0  0
M  CHG  2  27   1  29  -1
M  END
>  <Name>
CHEMBL208115

>  <Target_Uniprot>
P21731

>  <CHEMBL Canonical SMILES>
CCCCCNC(=O)NS(=O)(=O)c1cc(ccc1Nc2cccc(C)c2)[N+](=O)[O-]

>  <PubMed ID>
16759113

$$$$

  Marvin  08031817322D          

 33 37  0  0  0  0            999 V2000
   -0.8346   -1.8827    0.0000 O   0  0  0  0  0  0  0  0  0  0  0  0
   -0.3429   -2.5452    0.0000 C   0  0  0  0  0  0  0  0  0  0  0  0
   -0.5266   -3.3492    0.0000 O   0  0  0  0  0  0  0  0  0  0  0  0
    0.4488   -2.3201    0.0000 C   0  0  0  0  0  0  0  0  0  0  0  0
    0.8633   -1.6145    0.0000 C   0  0  0  0  0  0  0  0  0  0  0  0
    1.6493   -1.3927    0.0000 C   0  0  0  0  0  0  0  0  0  0  0  0
    2.2017   -2.0088    0.0000 C   0  0  0  0  0  0  0  0  0  0  0  0
    3.0173   -1.8402    0.0000 C   0  0  0  0  0  0  0  0  0  0  0  0
    3.2724   -1.0564    0.0000 C   0  0  0  0  0  0  0  0  0  0  0  0
    2.7145   -0.4406    0.0000 C   0  0  0  0  0  0  0  0  0  0  0  0
    1.9044   -0.6179    0.0000 C   0  0  0  0  0  0  0  0  0  0  0  0
    1.4057    0.0092    0.0000 C   0  0  0  0  0  0  0  0  0  0  0  0
    1.5539    0.7712    0.0000 C   0  0  0  0  0  0  0  0  0  0  0  0
    2.4290    0.9556    0.0000 C   0  0  0  0  0  0  0  0  0  0  0  0
    2.9761    1.7824    0.0000 C   0  0  0  0  0  0  0  0  0  0  0  0
    2.4180    2.4880    0.0000 C   0  0  0  0  0  0  0  0  0  0  0  0
    1.7520    2.0384    0.0000 C   0  0  0  0  0  0  0  0  0  0  0  0
    2.5697    1.5460    0.0000 O   0  0  0  0  0  0  0  0  0  0  0  0
    1.1509    1.4795    0.0000 C   0  0  0  0  0  0  0  0  0  0  0  0
    0.2734    1.4767    0.0000 C   0  0  0  0  0  0  0  0  0  0  0  0
   -0.2196    2.1466    0.0000 O   0  0  0  0  0  0  0  0  0  0  0  0
   -1.0082    1.8890    0.0000 C   0  0  0  0  0  0  0  0  0  0  0  0
   -1.0084    1.0625    0.0000 C   0  0  0  0  0  0  0  0  0  0  0  0
   -0.2234    0.8060    0.0000 N   0  0  0  0  0  0  0  0  0  0  0  0
   -1.6408    0.5388    0.0000 C   0  0  0  0  0  0  0  0  0  0  0  0
   -1.5984   -0.2815    0.0000 O   0  0  0  0  0  0  0  0  0  0  0  0
   -2.4107    0.8085    0.0000 N   0  0  0  0  0  0  0  0  0  0  0  0
   -3.1295    0.4144    0.0000 C   0  0  0  0  0  0  0  0  0  0  0  0
   -3.8826    0.7469    0.0000 C   0  0  0  0  0  0  0  0  0  0  0  0
   -4.5558    0.2590    0.0000 C   0  0  0  0  0  0  0  0  0  0  0  0
   -4.4675   -0.5641    0.0000 C   0  0  0  0  0  0  0  0  0  0  0  0
   -3.7105   -0.8987    0.0000 C   0  0  0  0  0  0  0  0  0  0  0  0
   -3.0408   -0.4057    0.0000 C   0  0  0  0  0  0  0  0  0  0  0  0
  1  2  1  0  0  0  0
  2  3  2  0  0  0  0
  2  4  1  0  0  0  0
  4  5  1  0  0  0  0
  5  6  1  0  0  0  0
  6  7  1  0  0  0  0
  7  8  2  0  0  0  0
  8  9  1  0  0  0  0
  9 10  2  0  0  0  0
 10 11  1  0  0  0  0
  6 11  2  0  0  0  0
 11 12  1  0  0  0  0
 12 13  1  0  0  0  0
 13 14  1  0  0  0  0
 14 15  1  0  0  0  0
 15 16  1  0  0  0  0
 16 17  1  0  0  0  0
 17 18  1  0  0  0  0
 14 18  1  0  0  0  0
 17 19  1  0  0  0  0
 13 19  1  0  0  0  0
 19 20  1  0  0  0  0
 20 21  1  0  0  0  0
 21 22  1  0  0  0  0
 22 23  2  0  0  0  0
 23 24  1  0  0  0  0
 20 24  2  0  0  0  0
 23 25  1  0  0  0  0
 25 26  2  0  0  0  0
 25 27  1  0  0  0  0
 27 28  1  0  0  0  0
 28 29  1  0  0  0  0
 29 30  1  0  0  0  0
 30 31  1  0  0  0  0
 31 32  1  0  0  0  0
 32 33  1  0  0  0  0
 28 33  1  0  0  0  0
M  END
>  <Name>
CHEMBL31334

>  <Target_Uniprot>
P21731

>  <CHEMBL Canonical SMILES>
OC(=O)CCc1ccccc1CC2C3CCC(O3)C2c4occ(n4)C(=O)NC5CCCCC5

>  <PubMed ID>
8496908

$$$$

  Marvin  08031817322D          

 28 29  0  0  0  0            999 V2000
    0.6890   -2.6371    0.0000 C   0  0  0  0  0  0  0  0  0  0  0  0
    0.6890   -1.8121    0.0000 C   0  0  0  0  0  0  0  0  0  0  0  0
    1.4034   -1.3996    0.0000 C   0  0  0  0  0  0  0  0  0  0  0  0
    2.1179   -1.8121    0.0000 C   0  0  0  0  0  0  0  0  0  0  0  0
    1.4034   -0.5746    0.0000 C   0  0  0  0  0  0  0  0  0  0  0  0
    2.1179   -0.1621    0.0000 C   0  0  0  0  0  0  0  0  0  0  0  0
    2.8324   -0.5746    0.0000 O   0  0  0  0  0  0  0  0  0  0  0  0
    0.6890   -0.1621    0.0000 C   0  0  0  0  0  0  0  0  0  0  0  0
    0.6890    0.6629    0.0000 C   0  0  0  0  0  0  0  0  0  0  0  0
   -0.0255   -0.5746    0.0000 C   0  0  0  0  0  0  0  0  0  0  0  0
   -0.7400   -0.1621    0.0000 C   0  0  0  0  0  0  0  0  0  0  0  0
   -0.7400    0.6629    0.0000 C   0  0  0  0  0  0  0  0  0  0  0  0
   -0.0255    1.0754    0.0000 C   0  0  0  0  0  0  0  0  0  0  0  0
   -0.0255    1.9004    0.0000 C   0  0  0  0  0  0  0  0  0  0  0  0
    0.6890    2.3129    0.0000 C   0  0  0  0  0  0  0  0  0  0  0  0
    0.6890    3.1379    0.0000 C   0  0  0  0  0  0  0  0  0  0  0  0
    1.4034    3.5504    0.0000 C   0  0  0  0  0  0  0  0  0  0  0  0
    2.1179    3.1379    0.0000 O   0  0  0  0  0  0  0  0  0  0  0  0
    1.4034    4.3754    0.0000 O   0  0  0  0  0  0  0  0  0  0  0  0
   -1.4545   -0.5746    0.0000 C   0  0  0  0  0  0  0  0  0  0  0  0
   -2.1689   -0.1621    0.0000 C   0  0  0  0  0  0  0  0  0  0  0  0
   -2.8834   -0.5746    0.0000 C   0  0  0  0  0  0  0  0  0  0  0  0
   -2.8834   -1.3996    0.0000 C   0  0  0  0  0  0  0  0  0  0  0  0
   -3.5979   -1.8121    0.0000 F   0  0  0  0  0  0  0  0  0  0  0  0
   -2.1689   -1.8121    0.0000 C   0  0  0  0  0  0  0  0  0  0  0  0
   -1.4545   -1.3996    0.0000 C   0  0  0  0  0  0  0  0  0  0  0  0
   -0.0255   -1.3996    0.0000 C   0  0  0  0  0  0  0  0  0  0  0  0
   -0.7400   -1.8121    0.0000 O   0  0  0  0  0  0  0  0  0  0  0  0
  1  2  1  0  0  0  0
  2  3  1  0  0  0  0
  3  4  1  0  0  0  0
  3  5  2  0  0  0  0
  5  6  1  0  0  0  0
  6  7  2  0  0  0  0
  5  8  1  0  0  0  0
  8  9  1  0  0  0  0
  8 10  2  0  0  0  0
 10 11  1  0  0  0  0
 11 12  1  0  0  0  0
 12 13  1  0  0  0  0
 13 14  1  0  0  0  0
 14 15  1  0  0  0  0
 15 16  1  0  0  0  0
 16 17  1  0  0  0  0
 17 18  2  0  0  0  0
 17 19  1  0  0  0  0
 11 20  1  0  0  0  0
 20 21  1  0  0  0  0
 21 22  2  0  0  0  0
 22 23  1  0  0  0  0
 23 24  1  0  0  0  0
 23 25  2  0  0  0  0
 25 26  1  0  0  0  0
 20 26  2  0  0  0  0
 10 27  1  0  0  0  0
  2 27  2  0  0  0  0
 27 28  1  0  0  0  0
M  END
>  <Name>
CHEMBL420002

>  <Target_Uniprot>
P21731

>  <CHEMBL Canonical SMILES>
Cc1c(C)c(C=O)c(C)c(C(CCCCCC(=O)O)c2ccc(F)cc2)c1O

>  <PubMed ID>
1535377

$$$$

  Marvin  08031817322D          

 35 38  0  0  0  0            999 V2000
    1.3653   -1.6294    0.0000 C   0  0  0  0  0  0  0  0  0  0  0  0
    0.5807   -1.8843    0.0000 C   0  0  0  0  0  0  0  0  0  0  0  0
   -0.2039   -2.1392    0.0000 C   0  0  0  0  0  0  0  0  0  0  0  0
   -0.8170   -1.5872    0.0000 C   0  0  0  0  0  0  0  0  0  0  0  0
   -1.6017   -1.8421    0.0000 C   0  0  0  0  0  0  0  0  0  0  0  0
   -1.7732   -2.6491    0.0000 C   0  0  0  0  0  0  0  0  0  0  0  0
   -1.1601   -3.2011    0.0000 C   0  0  0  0  0  0  0  0  0  0  0  0
   -0.3755   -2.9462    0.0000 C   0  0  0  0  0  0  0  0  0  0  0  0
    0.8356   -2.6689    0.0000 C   0  0  0  0  0  0  0  0  0  0  0  0
    0.2836   -3.2820    0.0000 C   0  0  0  0  0  0  0  0  0  0  0  0
    0.5385   -4.0666    0.0000 C   0  0  0  0  0  0  0  0  0  0  0  0
    1.3455   -4.2382    0.0000 C   0  0  0  0  0  0  0  0  0  0  0  0
    1.8975   -3.6251    0.0000 C   0  0  0  0  0  0  0  0  0  0  0  0
    1.6426   -2.8404    0.0000 C   0  0  0  0  0  0  0  0  0  0  0  0
    0.3257   -1.0997    0.0000 S   0  0  0  0  0  0  0  0  0  0  0  0
    1.1104   -0.8447    0.0000 O   0  0  0  0  0  0  0  0  0  0  0  0
   -0.4589   -1.3546    0.0000 O   0  0  0  0  0  0  0  0  0  0  0  0
    0.0708   -0.3151    0.0000 C   0  0  0  0  0  0  0  0  0  0  0  0
    0.6228    0.2980    0.0000 C   0  0  0  0  0  0  0  0  0  0  0  0
    0.3679    1.0827    0.0000 C   0  0  0  0  0  0  0  0  0  0  0  0
    0.8528    1.7501    0.0000 C   0  0  0  0  0  0  0  0  0  0  0  0
    1.6778    1.7501    0.0000 C   0  0  0  0  0  0  0  0  0  0  0  0
    2.0903    2.4646    0.0000 O   0  0  0  0  0  0  0  0  0  0  0  0
    0.3679    2.4175    0.0000 O   0  0  0  0  0  0  0  0  0  0  0  0
   -0.4167    2.1626    0.0000 C   0  0  0  0  0  0  0  0  0  0  0  0
   -1.1312    2.5751    0.0000 C   0  0  0  0  0  0  0  0  0  0  0  0
   -1.1312    3.4001    0.0000 O   0  0  0  0  0  0  0  0  0  0  0  0
   -0.4167    3.8126    0.0000 C   0  0  0  0  0  0  0  0  0  0  0  0
   -0.4167    4.6376    0.0000 C   0  0  0  0  0  0  0  0  0  0  0  0
   -1.1312    5.0501    0.0000 O   0  0  0  0  0  0  0  0  0  0  0  0
    0.2977    5.0501    0.0000 O   0  0  0  0  0  0  0  0  0  0  0  0
   -1.8457    2.1626    0.0000 C   0  0  0  0  0  0  0  0  0  0  0  0
   -1.8457    1.3376    0.0000 C   0  0  0  0  0  0  0  0  0  0  0  0
   -1.1312    0.9251    0.0000 C   0  0  0  0  0  0  0  0  0  0  0  0
   -0.4167    1.3376    0.0000 C   0  0  0  0  0  0  0  0  0  0  0  0
  1  2  1  0  0  0  0
  2  3  1  0  0  0  0
  3  4  1  0  0  0  0
  4  5  2  0  0  0  0
  5  6  1  0  0  0  0
  6  7  2  0  0  0  0
  7  8  1  0  0  0  0
  3  8  2  0  0  0  0
  2  9  1  0  0  0  0
  9 10  1  0  0  0  0
 10 11  2  0  0  0  0
 11 12  1  0  0  0  0
 12 13  2  0  0  0  0
 13 14  1  0  0  0  0
  9 14  2  0  0  0  0
  2 15  1  0  0  0  0
 15 16  2  0  0  0  0
 15 17  2  0  0  0  0
 15 18  1  0  0  0  0
 18 19  1  0  0  0  0
 19 20  1  0  0  0  0
 20 21  2  0  0  0  0
 21 22  1  0  0  0  0
 22 23  1  0  0  0  0
 21 24  1  0  0  0  0
 24 25  1  0  0  0  0
 25 26  1  0  0  0  0
 26 27  1  0  0  0  0
 27 28  1  0  0  0  0
 28 29  1  0  0  0  0
 29 30  2  0  0  0  0
 29 31  1  0  0  0  0
 26 32  2  0  0  0  0
 32 33  1  0  0  0  0
 33 34  2  0  0  0  0
 34 35  1  0  0  0  0
 20 35  1  0  0  0  0
 25 35  2  0  0  0  0
M  END
>  <Name>
CHEMBL190288

>  <Target_Uniprot>
P21731

>  <CHEMBL Canonical SMILES>
CC(c1ccccc1)(c2ccccc2)S(=O)(=O)CCc3c(CO)oc4c(OCC(=O)O)cccc34

>  <PubMed ID>
16078846

$$$$

  Marvin  08031817322D          

 35 38  0  0  1  0            999 V2000
    0.3270   -1.8093    0.0000 O   0  0  0  0  0  0  0  0  0  0  0  0
    0.8790   -2.4224    0.0000 C   0  0  0  0  0  0  0  0  0  0  0  0
    0.6241   -3.2070    0.0000 O   0  0  0  0  0  0  0  0  0  0  0  0
    1.6860   -2.2509    0.0000 C   0  0  0  0  0  0  0  0  0  0  0  0
    1.9410   -1.4662    0.0000 C   0  0  0  0  0  0  0  0  0  0  0  0
    2.7479   -1.2947    0.0000 C   0  0  0  0  0  0  0  0  0  0  0  0
    3.3000   -1.9078    0.0000 C   0  0  0  0  0  0  0  0  0  0  0  0
    4.1069   -1.7363    0.0000 C   0  0  0  0  0  0  0  0  0  0  0  0
    4.3619   -0.9517    0.0000 C   0  0  0  0  0  0  0  0  0  0  0  0
    3.8098   -0.3386    0.0000 C   0  0  0  0  0  0  0  0  0  0  0  0
    3.0029   -0.5101    0.0000 C   0  0  0  0  0  0  0  0  0  0  0  0
    2.4508    0.1030    0.0000 C   0  0  0  0  0  0  0  0  0  0  0  0
    2.7058    0.8876    0.0000 C   0  0  0  0  0  0  0  0  0  0  0  0
    3.4904    1.1426    0.0000 C   0  0  0  0  0  0  0  0  0  0  0  0
    3.4904    1.9676    0.0000 C   0  0  0  0  0  0  0  0  0  0  0  0
    2.7058    2.2225    0.0000 C   0  0  0  0  0  0  0  0  0  0  0  0
    2.2209    1.5551    0.0000 C   0  0  1  0  0  0  0  0  0  0  0  0
    1.3959    1.5551    0.0000 C   0  0  0  0  0  0  0  0  0  0  0  0
    0.9109    2.2225    0.0000 O   0  0  0  0  0  0  0  0  0  0  0  0
    0.1263    1.9676    0.0000 C   0  0  0  0  0  0  0  0  0  0  0  0
    0.1263    1.1426    0.0000 C   0  0  0  0  0  0  0  0  0  0  0  0
    0.9109    0.8876    0.0000 N   0  0  0  0  0  0  0  0  0  0  0  0
   -0.5411    0.6576    0.0000 C   0  0  0  0  0  0  0  0  0  0  0  0
   -0.4549   -0.1628    0.0000 O   0  0  0  0  0  0  0  0  0  0  0  0
   -1.2948    0.9932    0.0000 N   0  0  0  0  0  0  0  0  0  0  0  0
   -1.9622    0.5083    0.0000 C   0  0  0  0  0  0  0  0  0  0  0  0
   -2.7159    0.8438    0.0000 C   0  0  0  0  0  0  0  0  0  0  0  0
   -3.3834    0.3589    0.0000 C   0  0  0  0  0  0  0  0  0  0  0  0
   -4.1370    0.6945    0.0000 C   0  0  0  0  0  0  0  0  0  0  0  0
   -4.8045    0.2095    0.0000 C   0  0  0  0  0  0  0  0  0  0  0  0
   -5.5581    0.5451    0.0000 C   0  0  0  0  0  0  0  0  0  0  0  0
   -6.2256    0.0602    0.0000 C   0  0  0  0  0  0  0  0  0  0  0  0
   -6.1394   -0.7603    0.0000 C   0  0  0  0  0  0  0  0  0  0  0  0
   -5.3857   -1.0959    0.0000 C   0  0  0  0  0  0  0  0  0  0  0  0
   -4.7182   -0.6109    0.0000 C   0  0  0  0  0  0  0  0  0  0  0  0
  1  2  1  0  0  0  0
  2  3  2  0  0  0  0
  2  4  1  0  0  0  0
  4  5  1  0  0  0  0
  5  6  1  0  0  0  0
  6  7  1  0  0  0  0
  7  8  2  0  0  0  0
  8  9  1  0  0  0  0
  9 10  2  0  0  0  0
 10 11  1  0  0  0  0
  6 11  2  0  0  0  0
 11 12  1  0  0  0  0
 12 13  1  0  0  0  0
 13 14  1  0  0  0  0
 14 15  1  0  0  0  0
 15 16  1  0  0  0  0
 16 17  1  0  0  0  0
 13 17  1  0  0  0  0
 17 18  1  6  0  0  0
 18 19  1  0  0  0  0
 19 20  1  0  0  0  0
 20 21  2  0  0  0  0
 21 22  1  0  0  0  0
 18 22  2  0  0  0  0
 21 23  1  0  0  0  0
 23 24  2  0  0  0  0
 23 25  1  0  0  0  0
 25 26  1  0  0  0  0
 26 27  1  0  0  0  0
 27 28  1  0  0  0  0
 28 29  1  0  0  0  0
 29 30  1  0  0  0  0
 30 31  1  0  0  0  0
 31 32  1  0  0  0  0
 32 33  1  0  0  0  0
 33 34  1  0  0  0  0
 34 35  1  0  0  0  0
 30 35  1  0  0  0  0
M  END
>  <Name>
CHEMBL424031

>  <Target_Uniprot>
P21731

>  <CHEMBL Canonical SMILES>
OC(=O)CCc1ccccc1CC2CCC[C@H]2c3occ(n3)C(=O)NCCCCC4CCCCC4

$$$$

  Marvin  08031817322D          

 36 38  0  0  0  0            999 V2000
    1.5016   -6.6197    0.0000 C   0  0  0  0  0  0  0  0  0  0  0  0
    0.7054   -6.3749    0.0000 C   0  0  0  0  0  0  0  0  0  0  0  0
   -0.0825   -6.1050    0.0000 C   0  0  0  0  0  0  0  0  0  0  0  0
    0.4504   -7.1600    0.0000 C   0  0  0  0  0  0  0  0  0  0  0  0
    0.9619   -5.5873    0.0000 C   0  0  0  0  0  0  0  0  0  0  0  0
    1.7703   -5.4219    0.0000 C   0  0  0  0  0  0  0  0  0  0  0  0
    2.0293   -4.6322    0.0000 C   0  0  0  0  0  0  0  0  0  0  0  0
    1.4784   -4.0220    0.0000 C   0  0  0  0  0  0  0  0  0  0  0  0
    1.6821   -3.2316    0.0000 S   0  0  0  0  0  0  0  0  0  0  0  0
    1.2351   -2.5568    0.0000 C   0  0  0  0  0  0  0  0  0  0  0  0
    1.5245   -1.7905    0.0000 C   0  0  0  0  0  0  0  0  0  0  0  0
    2.3320   -1.6132    0.0000 O   0  0  0  0  0  0  0  0  0  0  0  0
    0.9460   -1.2021    0.0000 N   0  0  0  0  0  0  0  0  0  0  0  0
    1.0745   -0.3863    0.0000 C   0  0  0  0  0  0  0  0  0  0  0  0
    0.4952    0.2011    0.0000 C   0  0  0  0  0  0  0  0  0  0  0  0
   -0.3123    0.0251    0.0000 O   0  0  0  0  0  0  0  0  0  0  0  0
    0.7853    0.9684    0.0000 N   0  0  0  0  0  0  0  0  0  0  0  0
    0.3350    1.6389    0.0000 C   0  0  0  0  0  0  0  0  0  0  0  0
    0.5616    2.3887    0.0000 C   0  0  0  0  0  0  0  0  0  0  0  0
    1.4374    2.5729    0.0000 C   0  0  0  0  0  0  0  0  0  0  0  0
    1.9733    3.3986    0.0000 C   0  0  0  0  0  0  0  0  0  0  0  0
    1.4191    4.1040    0.0000 C   0  0  0  0  0  0  0  0  0  0  0  0
    0.7583    3.6591    0.0000 C   0  0  0  0  0  0  0  0  0  0  0  0
    1.5848    3.1779    0.0000 O   0  0  0  0  0  0  0  0  0  0  0  0
    0.1644    3.0957    0.0000 C   0  0  0  0  0  0  0  0  0  0  0  0
   -0.7005    3.0779    0.0000 C   0  0  0  0  0  0  0  0  0  0  0  0
   -1.1749    3.7421    0.0000 C   0  0  0  0  0  0  0  0  0  0  0  0
   -1.9879    3.8166    0.0000 C   0  0  0  0  0  0  0  0  0  0  0  0
   -2.4611    4.4897    0.0000 C   0  0  0  0  0  0  0  0  0  0  0  0
   -3.2806    4.5772    0.0000 C   0  0  0  0  0  0  0  0  0  0  0  0
   -3.7922    5.2235    0.0000 C   0  0  0  0  0  0  0  0  0  0  0  0
   -4.6183    5.2361    0.0000 C   0  0  0  0  0  0  0  0  0  0  0  0
   -4.9357    4.4704    0.0000 O   0  0  0  0  0  0  0  0  0  0  0  0
   -4.9414    5.9990    0.0000 O   0  0  0  0  0  0  0  0  0  0  0  0
    0.6711   -4.1851    0.0000 C   0  0  0  0  0  0  0  0  0  0  0  0
    0.4103   -4.9740    0.0000 C   0  0  0  0  0  0  0  0  0  0  0  0
  1  2  1  0  0  0  0
  2  3  1  0  0  0  0
  2  4  1  0  0  0  0
  2  5  1  0  0  0  0
  5  6  1  0  0  0  0
  6  7  2  0  0  0  0
  7  8  1  0  0  0  0
  8  9  1  0  0  0  0
  9 10  1  0  0  0  0
 10 11  1  0  0  0  0
 11 12  2  0  0  0  0
 11 13  1  0  0  0  0
 13 14  1  0  0  0  0
 14 15  1  0  0  0  0
 15 16  2  0  0  0  0
 15 17  1  0  0  0  0
 17 18  1  0  0  0  0
 18 19  1  0  0  0  0
 19 20  1  0  0  0  0
 20 21  1  0  0  0  0
 21 22  1  0  0  0  0
 22 23  1  0  0  0  0
 23 24  1  0  0  0  0
 20 24  1  0  0  0  0
 23 25  1  0  0  0  0
 19 25  1  0  0  0  0
 25 26  1  0  0  0  0
 26 27  1  0  0  0  0
 27 28  2  0  0  0  0
 28 29  1  0  0  0  0
 29 30  1  0  0  0  0
 30 31  1  0  0  0  0
 31 32  1  0  0  0  0
 32 33  2  0  0  0  0
 32 34  1  0  0  0  0
  8 35  2  0  0  0  0
 35 36  1  0  0  0  0
  5 36  2  0  0  0  0
M  END
>  <Name>
CHEMBL83366

>  <Target_Uniprot>
P21731

>  <CHEMBL Canonical SMILES>
CC(C)(C)c1ccc(SCC(=O)NCC(=O)NCC2C3CCC(O3)C2C\C=C\CCCC(=O)O)cc1

>  <PubMed ID>
2391688

$$$$

  Marvin  08031817322D          

 32 35  0  0  0  0            999 V2000
   -3.8244   -4.7728    0.0000 C   0  0  0  0  0  0  0  0  0  0  0  0
   -3.1748   -4.2642    0.0000 C   0  0  0  0  0  0  0  0  0  0  0  0
   -3.1177   -3.4433    0.0000 C   0  0  0  0  0  0  0  0  0  0  0  0
   -2.5235   -2.8789    0.0000 C   0  0  0  0  0  0  0  0  0  0  0  0
   -2.5172   -2.0640    0.0000 C   0  0  0  0  0  0  0  0  0  0  0  0
   -1.9066   -1.5247    0.0000 N   0  0  0  0  0  0  0  0  0  0  0  0
   -2.1290   -0.7221    0.0000 C   0  0  0  0  0  0  0  0  0  0  0  0
   -2.8964   -0.3610    0.0000 O   0  0  0  0  0  0  0  0  0  0  0  0
   -1.4049   -0.2705    0.0000 C   0  0  0  0  0  0  0  0  0  0  0  0
   -0.6230   -0.5235    0.0000 C   0  0  0  0  0  0  0  0  0  0  0  0
   -0.1418    0.1464    0.0000 O   0  0  0  0  0  0  0  0  0  0  0  0
   -0.6041    0.8464    0.0000 C   0  0  0  0  0  0  0  0  0  0  0  0
   -1.3905    0.5767    0.0000 N   0  0  0  0  0  0  0  0  0  0  0  0
   -0.1918    1.6778    0.0000 C   0  0  0  0  0  0  0  0  0  0  0  0
    0.6207    1.8669    0.0000 C   0  0  0  0  0  0  0  0  0  0  0  0
    1.1834    1.2710    0.0000 C   0  0  0  0  0  0  0  0  0  0  0  0
    1.2201    0.4820    0.0000 C   0  0  0  0  0  0  0  0  0  0  0  0
    0.4536    0.1951    0.0000 C   0  0  0  0  0  0  0  0  0  0  0  0
    0.3238   -0.6266    0.0000 C   0  0  0  0  0  0  0  0  0  0  0  0
    0.9653   -1.1406    0.0000 C   0  0  0  0  0  0  0  0  0  0  0  0
    1.7388   -0.8366    0.0000 C   0  0  0  0  0  0  0  0  0  0  0  0
    1.8645   -0.0148    0.0000 C   0  0  0  0  0  0  0  0  0  0  0  0
    2.5939    0.3783    0.0000 C   0  0  0  0  0  0  0  0  0  0  0  0
    3.3103   -0.0455    0.0000 C   0  0  0  0  0  0  0  0  0  0  0  0
    4.0605    0.2894    0.0000 C   0  0  0  0  0  0  0  0  0  0  0  0
    4.0361    1.1108    0.0000 O   0  0  0  0  0  0  0  0  0  0  0  0
    4.6589   -0.2740    0.0000 O   0  0  0  0  0  0  0  0  0  0  0  0
    0.6665    2.7674    0.0000 C   0  0  0  0  0  0  0  0  0  0  0  0
   -0.0148    3.5021    0.0000 C   0  0  0  0  0  0  0  0  0  0  0  0
   -0.8259    3.1735    0.0000 C   0  0  0  0  0  0  0  0  0  0  0  0
   -0.5511    2.4190    0.0000 C   0  0  0  0  0  0  0  0  0  0  0  0
    0.1411    3.0600    0.0000 O   0  0  0  0  0  0  0  0  0  0  0  0
  1  2  1  0  0  0  0
  2  3  1  0  0  0  0
  3  4  1  0  0  0  0
  4  5  1  0  0  0  0
  5  6  1  0  0  0  0
  6  7  1  0  0  0  0
  7  8  2  0  0  0  0
  7  9  1  0  0  0  0
  9 10  2  0  0  0  0
 10 11  1  0  0  0  0
 11 12  1  0  0  0  0
 12 13  2  0  0  0  0
  9 13  1  0  0  0  0
 12 14  1  0  0  0  0
 14 15  1  0  0  0  0
 15 16  1  0  0  0  0
 16 17  1  0  0  0  0
 17 18  1  0  0  0  0
 18 19  2  0  0  0  0
 19 20  1  0  0  0  0
 20 21  2  0  0  0  0
 21 22  1  0  0  0  0
 17 22  2  0  0  0  0
 22 23  1  0  0  0  0
 23 24  1  0  0  0  0
 24 25  1  0  0  0  0
 25 26  2  0  0  0  0
 25 27  1  0  0  0  0
 15 28  1  0  0  0  0
 28 29  1  0  0  0  0
 29 30  1  0  0  0  0
 30 31  1  0  0  0  0
 14 31  1  0  0  0  0
 31 32  1  0  0  0  0
 28 32  1  0  0  0  0
M  END
>  <Name>
CHEMBL283100

>  <Target_Uniprot>
P21731

>  <CHEMBL Canonical SMILES>
CCCCCNC(=O)c1coc(n1)C2C(Cc3ccccc3CCC(=O)O)C4CCC2O4

$$$$

  Marvin  08031817322D          

 27 29  0  0  0  0            999 V2000
   -1.6385   -4.0435    0.0000 C   0  0  0  0  0  0  0  0  0  0  0  0
   -1.8935   -3.2589    0.0000 O   0  0  0  0  0  0  0  0  0  0  0  0
   -1.3415   -2.6458    0.0000 C   0  0  0  0  0  0  0  0  0  0  0  0
   -0.5345   -2.8173    0.0000 C   0  0  0  0  0  0  0  0  0  0  0  0
    0.0176   -2.2042    0.0000 C   0  0  0  0  0  0  0  0  0  0  0  0
   -0.2374   -1.4196    0.0000 C   0  0  0  0  0  0  0  0  0  0  0  0
    0.3146   -0.8065    0.0000 C   0  0  0  0  0  0  0  0  0  0  0  0
    0.0597   -0.0219    0.0000 N   0  0  0  0  0  0  0  0  0  0  0  0
    0.5446    0.6456    0.0000 C   0  0  0  0  0  0  0  0  0  0  0  0
    1.3696    0.6456    0.0000 C   0  0  0  0  0  0  0  0  0  0  0  0
    1.7821    1.3601    0.0000 C   0  0  0  0  0  0  0  0  0  0  0  0
    1.0677    1.7726    0.0000 C   0  0  0  0  0  0  0  0  0  0  0  0
    2.4966    0.9476    0.0000 C   0  0  0  0  0  0  0  0  0  0  0  0
    2.1946    2.0745    0.0000 C   0  0  0  0  0  0  0  0  0  0  0  0
    3.0196    2.0745    0.0000 C   0  0  0  0  0  0  0  0  0  0  0  0
    3.4321    1.3601    0.0000 O   0  0  0  0  0  0  0  0  0  0  0  0
    3.4321    2.7890    0.0000 O   0  0  0  0  0  0  0  0  0  0  0  0
    0.0597    1.3130    0.0000 N   0  0  0  0  0  0  0  0  0  0  0  0
   -0.7249    1.0581    0.0000 C   0  0  0  0  0  0  0  0  0  0  0  0
   -1.4394    1.4706    0.0000 C   0  0  0  0  0  0  0  0  0  0  0  0
   -2.1539    1.0581    0.0000 C   0  0  0  0  0  0  0  0  0  0  0  0
   -2.8683    1.4706    0.0000 F   0  0  0  0  0  0  0  0  0  0  0  0
   -2.1539    0.2331    0.0000 C   0  0  0  0  0  0  0  0  0  0  0  0
   -1.4394   -0.1794    0.0000 C   0  0  0  0  0  0  0  0  0  0  0  0
   -0.7249    0.2331    0.0000 C   0  0  0  0  0  0  0  0  0  0  0  0
   -1.0444   -1.2480    0.0000 C   0  0  0  0  0  0  0  0  0  0  0  0
   -1.5964   -1.8611    0.0000 C   0  0  0  0  0  0  0  0  0  0  0  0
  1  2  1  0  0  0  0
  2  3  1  0  0  0  0
  3  4  1  0  0  0  0
  4  5  2  0  0  0  0
  5  6  1  0  0  0  0
  6  7  1  0  0  0  0
  7  8  1  0  0  0  0
  8  9  1  0  0  0  0
  9 10  1  0  0  0  0
 10 11  1  0  0  0  0
 11 12  1  0  0  0  0
 11 13  1  0  0  0  0
 11 14  1  0  0  0  0
 14 15  1  0  0  0  0
 15 16  2  0  0  0  0
 15 17  1  0  0  0  0
  9 18  2  0  0  0  0
 18 19  1  0  0  0  0
 19 20  1  0  0  0  0
 20 21  2  0  0  0  0
 21 22  1  0  0  0  0
 21 23  1  0  0  0  0
 23 24  2  0  0  0  0
 24 25  1  0  0  0  0
  8 25  1  0  0  0  0
 19 25  2  0  0  0  0
  6 26  2  0  0  0  0
 26 27  1  0  0  0  0
  3 27  2  0  0  0  0
M  END
>  <Name>
CHEMBL277065

>  <Target_Uniprot>
P21731

>  <CHEMBL Canonical SMILES>
COc1ccc(Cn2c(CC(C)(C)CC(=O)O)nc3cc(F)ccc23)cc1

>  <PubMed ID>
8487256

$$$$

  Marvin  08031817322D          

 30 34  0  0  0  0            999 V2000
   -2.4273   -0.1856    0.0000 O   0  0  0  0  0  0  0  0  0  0  0  0
   -2.3533   -1.0072    0.0000 C   0  0  0  0  0  0  0  0  0  0  0  0
   -3.0279   -1.4821    0.0000 O   0  0  0  0  0  0  0  0  0  0  0  0
   -1.6047   -1.3540    0.0000 C   0  0  0  0  0  0  0  0  0  0  0  0
   -1.5308   -2.1757    0.0000 C   0  0  0  0  0  0  0  0  0  0  0  0
   -0.7822   -2.5225    0.0000 C   0  0  0  0  0  0  0  0  0  0  0  0
   -0.1076   -2.0476    0.0000 C   0  0  0  0  0  0  0  0  0  0  0  0
    0.5809   -2.5021    0.0000 O   0  0  0  0  0  0  0  0  0  0  0  0
    1.3655   -2.2472    0.0000 C   0  0  0  0  0  0  0  0  0  0  0  0
    1.6554   -1.4748    0.0000 C   0  0  0  0  0  0  0  0  0  0  0  0
    2.4803   -1.4624    0.0000 C   0  0  0  0  0  0  0  0  0  0  0  0
    2.8821   -0.7419    0.0000 C   0  0  0  0  0  0  0  0  0  0  0  0
    2.4590   -0.0337    0.0000 C   0  0  0  0  0  0  0  0  0  0  0  0
    1.6341   -0.0460    0.0000 C   0  0  0  0  0  0  0  0  0  0  0  0
    1.2323   -0.7666    0.0000 C   0  0  0  0  0  0  0  0  0  0  0  0
    0.4148   -0.6558    0.0000 C   0  0  0  0  0  0  0  0  0  0  0  0
    0.1598    0.1288    0.0000 C   0  0  0  0  0  0  0  0  0  0  0  0
    0.7119    0.7419    0.0000 C   0  0  0  0  0  0  0  0  0  0  0  0
    0.4569    1.5265    0.0000 N   0  0  0  0  0  0  0  0  0  0  0  0
    0.9418    2.1940    0.0000 C   0  0  0  0  0  0  0  0  0  0  0  0
    1.7668    2.1940    0.0000 O   0  0  0  0  0  0  0  0  0  0  0  0
    0.4569    2.8614    0.0000 N   0  0  0  0  0  0  0  0  0  0  0  0
   -0.3277    2.6065    0.0000 C   0  0  0  0  0  0  0  0  0  0  0  0
   -1.0422    3.0190    0.0000 C   0  0  0  0  0  0  0  0  0  0  0  0
   -1.7567    2.6065    0.0000 C   0  0  0  0  0  0  0  0  0  0  0  0
   -1.7567    1.7815    0.0000 C   0  0  0  0  0  0  0  0  0  0  0  0
   -1.0422    1.3690    0.0000 C   0  0  0  0  0  0  0  0  0  0  0  0
   -0.3277    1.7815    0.0000 C   0  0  0  0  0  0  0  0  0  0  0  0
   -0.1815   -1.2259    0.0000 C   0  0  0  0  0  0  0  0  0  0  0  0
   -0.9301   -0.8791    0.0000 C   0  0  0  0  0  0  0  0  0  0  0  0
  1  2  1  0  0  0  0
  2  3  2  0  0  0  0
  2  4  1  0  0  0  0
  4  5  1  0  0  0  0
  5  6  2  0  0  0  0
  6  7  1  0  0  0  0
  7  8  1  0  0  0  0
  8  9  1  0  0  0  0
  9 10  1  0  0  0  0
 10 11  1  0  0  0  0
 11 12  2  0  0  0  0
 12 13  1  0  0  0  0
 13 14  2  0  0  0  0
 14 15  1  0  0  0  0
 10 15  2  0  0  0  0
 15 16  1  0  0  0  0
 16 17  2  0  0  0  0
 17 18  1  0  0  0  0
 18 19  1  0  0  0  0
 19 20  1  0  0  0  0
 20 21  1  0  0  0  0
 20 22  2  0  0  0  0
 22 23  1  0  0  0  0
 23 24  1  0  0  0  0
 24 25  2  0  0  0  0
 25 26  1  0  0  0  0
 26 27  2  0  0  0  0
 27 28  1  0  0  0  0
 19 28  1  0  0  0  0
 23 28  2  0  0  0  0
 16 29  1  0  0  0  0
  7 29  2  0  0  0  0
 29 30  1  0  0  0  0
  4 30  2  0  0  0  0
M  END
>  <Name>
CHEMBL114034

>  <Target_Uniprot>
P21731

>  <CHEMBL Canonical SMILES>
OC(=O)c1ccc2OCc3ccccc3\C(=C/Cn4c(O)nc5ccccc45)\c2c1

>  <PubMed ID>
1388208

$$$$

  Marvin  08031817322D          

 31 35  0  0  0  0            999 V2000
    2.3008    1.2716    0.0000 C   0  0  0  0  0  0  0  0  0  0  0  0
    1.5863    1.6841    0.0000 C   0  0  0  0  0  0  0  0  0  0  0  0
    1.5863    2.5091    0.0000 C   0  0  0  0  0  0  0  0  0  0  0  0
    0.8719    2.9216    0.0000 C   0  0  0  0  0  0  0  0  0  0  0  0
    0.8719    3.7466    0.0000 C   0  0  0  0  0  0  0  0  0  0  0  0
    0.1574    2.5091    0.0000 C   0  0  0  0  0  0  0  0  0  0  0  0
   -0.6272    2.7640    0.0000 N   0  0  0  0  0  0  0  0  0  0  0  0
   -1.1122    2.0966    0.0000 C   0  0  0  0  0  0  0  0  0  0  0  0
   -0.6272    1.4291    0.0000 N   0  0  0  0  0  0  0  0  0  0  0  0
   -0.8822    0.6445    0.0000 C   0  0  0  0  0  0  0  0  0  0  0  0
   -0.3301    0.0314    0.0000 C   0  0  0  0  0  0  0  0  0  0  0  0
   -0.5851   -0.7532    0.0000 C   0  0  0  0  0  0  0  0  0  0  0  0
   -1.4026   -0.8639    0.0000 C   0  0  0  0  0  0  0  0  0  0  0  0
   -1.8044   -0.1434    0.0000 C   0  0  0  0  0  0  0  0  0  0  0  0
   -2.6293   -0.1310    0.0000 C   0  0  0  0  0  0  0  0  0  0  0  0
   -3.0524   -0.8393    0.0000 C   0  0  0  0  0  0  0  0  0  0  0  0
   -2.6507   -1.5598    0.0000 C   0  0  0  0  0  0  0  0  0  0  0  0
   -1.8258   -1.5722    0.0000 C   0  0  0  0  0  0  0  0  0  0  0  0
   -1.5359   -2.3446    0.0000 C   0  0  0  0  0  0  0  0  0  0  0  0
   -0.7513   -2.5995    0.0000 O   0  0  0  0  0  0  0  0  0  0  0  0
   -0.0627   -2.1450    0.0000 C   0  0  0  0  0  0  0  0  0  0  0  0
    0.6119   -2.6199    0.0000 C   0  0  0  0  0  0  0  0  0  0  0  0
    1.3605   -2.2731    0.0000 C   0  0  0  0  0  0  0  0  0  0  0  0
    1.4344   -1.4514    0.0000 C   0  0  0  0  0  0  0  0  0  0  0  0
    0.7598   -0.9765    0.0000 C   0  0  0  0  0  0  0  0  0  0  0  0
    0.0112   -1.3233    0.0000 C   0  0  0  0  0  0  0  0  0  0  0  0
    2.1830   -1.1046    0.0000 C   0  0  0  0  0  0  0  0  0  0  0  0
    2.2569   -0.2829    0.0000 O   0  0  0  0  0  0  0  0  0  0  0  0
    2.8576   -1.5795    0.0000 O   0  0  0  0  0  0  0  0  0  0  0  0
    0.1574    1.6841    0.0000 C   0  0  0  0  0  0  0  0  0  0  0  0
    0.8719    1.2716    0.0000 C   0  0  0  0  0  0  0  0  0  0  0  0
  1  2  1  0  0  0  0
  2  3  1  0  0  0  0
  3  4  2  0  0  0  0
  4  5  1  0  0  0  0
  4  6  1  0  0  0  0
  6  7  1  0  0  0  0
  7  8  2  0  0  0  0
  8  9  1  0  0  0  0
  9 10  1  0  0  0  0
 10 11  1  0  0  0  0
 11 12  2  0  0  0  0
 12 13  1  0  0  0  0
 13 14  1  0  0  0  0
 14 15  2  0  0  0  0
 15 16  1  0  0  0  0
 16 17  2  0  0  0  0
 17 18  1  0  0  0  0
 13 18  2  0  0  0  0
 18 19  1  0  0  0  0
 19 20  1  0  0  0  0
 20 21  1  0  0  0  0
 21 22  1  0  0  0  0
 22 23  2  0  0  0  0
 23 24  1  0  0  0  0
 24 25  2  0  0  0  0
 25 26  1  0  0  0  0
 12 26  1  0  0  0  0
 21 26  2  0  0  0  0
 24 27  1  0  0  0  0
 27 28  2  0  0  0  0
 27 29  1  0  0  0  0
  9 30  1  0  0  0  0
  6 30  2  0  0  0  0
 30 31  1  0  0  0  0
  2 31  2  0  0  0  0
M  END
>  <Name>
CHEMBL324965

>  <Target_Uniprot>
P21731

>  <CHEMBL Canonical SMILES>
Cc1cc(C)c2ncn(C\C=C\3/c4ccccc4COc5ccc(cc35)C(=O)O)c2c1

>  <PubMed ID>
1388208

$$$$

  Marvin  08031817322D          

 38 42  0  0  0  0            999 V2000
    0.2668   -1.8551    0.0000 O   0  0  0  0  0  0  0  0  0  0  0  0
    0.7623   -2.5223    0.0000 C   0  0  0  0  0  0  0  0  0  0  0  0
    0.5759   -3.3313    0.0000 O   0  0  0  0  0  0  0  0  0  0  0  0
    1.5559   -2.2967    0.0000 C   0  0  0  0  0  0  0  0  0  0  0  0
    1.9657   -1.5890    0.0000 C   0  0  0  0  0  0  0  0  0  0  0  0
    2.7551   -1.3691    0.0000 C   0  0  0  0  0  0  0  0  0  0  0  0
    3.3092   -1.9866    0.0000 C   0  0  0  0  0  0  0  0  0  0  0  0
    4.1236   -1.8165    0.0000 C   0  0  0  0  0  0  0  0  0  0  0  0
    4.3797   -1.0302    0.0000 C   0  0  0  0  0  0  0  0  0  0  0  0
    3.8227   -0.4135    0.0000 C   0  0  0  0  0  0  0  0  0  0  0  0
    3.0115   -0.5892    0.0000 C   0  0  0  0  0  0  0  0  0  0  0  0
    2.5116    0.0457    0.0000 C   0  0  0  0  0  0  0  0  0  0  0  0
    2.6653    0.8112    0.0000 C   0  0  0  0  0  0  0  0  0  0  0  0
    3.5344    0.9974    0.0000 C   0  0  0  0  0  0  0  0  0  0  0  0
    4.0763    1.8139    0.0000 C   0  0  0  0  0  0  0  0  0  0  0  0
    3.5199    2.5231    0.0000 C   0  0  0  0  0  0  0  0  0  0  0  0
    2.8535    2.0820    0.0000 C   0  0  0  0  0  0  0  0  0  0  0  0
    3.6796    1.6027    0.0000 O   0  0  0  0  0  0  0  0  0  0  0  0
    2.2588    1.5178    0.0000 C   0  0  0  0  0  0  0  0  0  0  0  0
    1.3808    1.5057    0.0000 C   0  0  0  0  0  0  0  0  0  0  0  0
    0.8865    2.1781    0.0000 O   0  0  0  0  0  0  0  0  0  0  0  0
    0.0978    1.9228    0.0000 C   0  0  0  0  0  0  0  0  0  0  0  0
    0.0985    1.0959    0.0000 C   0  0  0  0  0  0  0  0  0  0  0  0
    0.8835    0.8354    0.0000 N   0  0  0  0  0  0  0  0  0  0  0  0
   -0.4994    0.5412    0.0000 C   0  0  0  0  0  0  0  0  0  0  0  0
   -0.4961   -0.2784    0.0000 O   0  0  0  0  0  0  0  0  0  0  0  0
   -1.2456    0.8776    0.0000 N   0  0  0  0  0  0  0  0  0  0  0  0
   -1.9772    0.5039    0.0000 C   0  0  0  0  0  0  0  0  0  0  0  0
   -2.7640    0.7386    0.0000 C   0  0  0  0  0  0  0  0  0  0  0  0
   -3.4759    0.3411    0.0000 C   0  0  0  0  0  0  0  0  0  0  0  0
   -4.2401    0.5873    0.0000 C   0  0  0  0  0  0  0  0  0  0  0  0
   -4.8986    0.1342    0.0000 C   0  0  0  0  0  0  0  0  0  0  0  0
   -5.6498    0.4705    0.0000 C   0  0  0  0  0  0  0  0  0  0  0  0
   -6.3223   -0.0181    0.0000 C   0  0  0  0  0  0  0  0  0  0  0  0
   -6.2310   -0.8417    0.0000 C   0  0  0  0  0  0  0  0  0  0  0  0
   -6.8968   -1.3260    0.0000 F   0  0  0  0  0  0  0  0  0  0  0  0
   -5.4736   -1.1778    0.0000 C   0  0  0  0  0  0  0  0  0  0  0  0
   -4.8046   -0.6848    0.0000 C   0  0  0  0  0  0  0  0  0  0  0  0
  1  2  1  0  0  0  0
  2  3  2  0  0  0  0
  2  4  1  0  0  0  0
  4  5  1  0  0  0  0
  5  6  1  0  0  0  0
  6  7  1  0  0  0  0
  7  8  2  0  0  0  0
  8  9  1  0  0  0  0
  9 10  2  0  0  0  0
 10 11  1  0  0  0  0
  6 11  2  0  0  0  0
 11 12  1  0  0  0  0
 12 13  1  0  0  0  0
 13 14  1  0  0  0  0
 14 15  1  0  0  0  0
 15 16  1  0  0  0  0
 16 17  1  0  0  0  0
 17 18  1  0  0  0  0
 14 18  1  0  0  0  0
 17 19  1  0  0  0  0
 13 19  1  0  0  0  0
 19 20  1  0  0  0  0
 20 21  1  0  0  0  0
 21 22  1  0  0  0  0
 22 23  2  0  0  0  0
 23 24  1  0  0  0  0
 20 24  2  0  0  0  0
 23 25  1  0  0  0  0
 25 26  2  0  0  0  0
 25 27  1  0  0  0  0
 27 28  1  0  0  0  0
 28 29  1  0  0  0  0
 29 30  1  0  0  0  0
 30 31  1  0  0  0  0
 31 32  1  0  0  0  0
 32 33  1  0  0  0  0
 33 34  2  0  0  0  0
 34 35  1  0  0  0  0
 35 36  1  0  0  0  0
 35 37  2  0  0  0  0
 37 38  1  0  0  0  0
 32 38  2  0  0  0  0
M  END
>  <Name>
CHEMBL30537

>  <Target_Uniprot>
P21731

>  <CHEMBL Canonical SMILES>
OC(=O)CCc1ccccc1CC2C3CCC(O3)C2c4occ(n4)C(=O)NCCCCc5ccc(F)cc5

>  <PubMed ID>
8496908

$$$$

  Marvin  08031817322D          

 35 39  0  0  0  0            999 V2000
    2.1267   -3.7817    0.0000 O   0  0  0  0  0  0  0  0  0  0  0  0
    1.7911   -3.0281    0.0000 C   0  0  0  0  0  0  0  0  0  0  0  0
    2.2036   -2.3136    0.0000 C   0  0  0  0  0  0  0  0  0  0  0  0
    1.6516   -1.7005    0.0000 C   0  0  0  0  0  0  0  0  0  0  0  0
    1.8231   -0.8935    0.0000 O   0  0  0  0  0  0  0  0  0  0  0  0
    0.8979   -2.0361    0.0000 C   0  0  0  0  0  0  0  0  0  0  0  0
    0.1834   -1.6236    0.0000 C   0  0  0  0  0  0  0  0  0  0  0  0
    0.1834   -0.7986    0.0000 C   0  0  0  0  0  0  0  0  0  0  0  0
    0.8979   -0.3861    0.0000 C   0  0  0  0  0  0  0  0  0  0  0  0
    0.8979    0.4389    0.0000 C   0  0  0  0  0  0  0  0  0  0  0  0
    0.1834    0.8514    0.0000 C   0  0  0  0  0  0  0  0  0  0  0  0
   -0.5310    0.4389    0.0000 C   0  0  0  0  0  0  0  0  0  0  0  0
   -1.2455    0.8514    0.0000 C   0  0  0  0  0  0  0  0  0  0  0  0
   -1.9600    0.4389    0.0000 C   0  0  0  0  0  0  0  0  0  0  0  0
   -1.9600   -0.3861    0.0000 C   0  0  0  0  0  0  0  0  0  0  0  0
   -1.2455   -0.7986    0.0000 C   0  0  0  0  0  0  0  0  0  0  0  0
   -0.5310   -0.3861    0.0000 C   0  0  0  0  0  0  0  0  0  0  0  0
   -2.6744    0.8514    0.0000 N   0  0  0  0  0  0  0  0  0  0  0  0
   -2.6744    1.6764    0.0000 S   0  0  0  0  0  0  0  0  0  0  0  0
   -3.4994    1.6764    0.0000 O   0  0  0  0  0  0  0  0  0  0  0  0
   -1.8494    1.6764    0.0000 O   0  0  0  0  0  0  0  0  0  0  0  0
   -2.6744    2.5014    0.0000 C   0  0  0  0  0  0  0  0  0  0  0  0
   -1.9600    2.9139    0.0000 C   0  0  0  0  0  0  0  0  0  0  0  0
   -1.9600    3.7389    0.0000 C   0  0  0  0  0  0  0  0  0  0  0  0
   -2.6744    4.1514    0.0000 C   0  0  0  0  0  0  0  0  0  0  0  0
   -2.6744    4.9764    0.0000 Cl  0  0  0  0  0  0  0  0  0  0  0  0
   -3.3889    3.7389    0.0000 C   0  0  0  0  0  0  0  0  0  0  0  0
   -3.3889    2.9139    0.0000 C   0  0  0  0  0  0  0  0  0  0  0  0
    0.9841   -2.8565    0.0000 C   0  0  0  0  0  0  0  0  0  0  0  0
    3.0241   -2.2274    0.0000 C   0  0  0  0  0  0  0  0  0  0  0  0
    3.5090   -2.8948    0.0000 C   0  0  0  0  0  0  0  0  0  0  0  0
    4.3295   -2.8086    0.0000 C   0  0  0  0  0  0  0  0  0  0  0  0
    4.6651   -2.0549    0.0000 C   0  0  0  0  0  0  0  0  0  0  0  0
    4.1801   -1.3874    0.0000 C   0  0  0  0  0  0  0  0  0  0  0  0
    3.3597   -1.4737    0.0000 C   0  0  0  0  0  0  0  0  0  0  0  0
  1  2  1  0  0  0  0
  2  3  2  0  0  0  0
  3  4  1  0  0  0  0
  4  5  2  0  0  0  0
  4  6  1  0  0  0  0
  6  7  1  0  0  0  0
  7  8  1  0  0  0  0
  8  9  1  0  0  0  0
  9 10  2  0  0  0  0
 10 11  1  0  0  0  0
 11 12  2  0  0  0  0
 12 13  1  0  0  0  0
 13 14  1  0  0  0  0
 14 15  1  0  0  0  0
 15 16  1  0  0  0  0
 16 17  1  0  0  0  0
  8 17  2  0  0  0  0
 12 17  1  0  0  0  0
 14 18  1  0  0  0  0
 18 19  1  0  0  0  0
 19 20  2  0  0  0  0
 19 21  2  0  0  0  0
 19 22  1  0  0  0  0
 22 23  1  0  0  0  0
 23 24  2  0  0  0  0
 24 25  1  0  0  0  0
 25 26  1  0  0  0  0
 25 27  2  0  0  0  0
 27 28  1  0  0  0  0
 22 28  2  0  0  0  0
  6 29  1  0  0  0  0
  2 29  1  0  0  0  0
  3 30  1  0  0  0  0
 30 31  1  0  0  0  0
 31 32  2  0  0  0  0
 32 33  1  0  0  0  0
 33 34  2  0  0  0  0
 34 35  1  0  0  0  0
 30 35  2  0  0  0  0
M  END
>  <Name>
CHEMBL3354614

>  <Target_Uniprot>
P21731

>  <CHEMBL Canonical SMILES>
OC1=C(C(=O)C(Cc2cccc3CC(CCc23)NS(=O)(=O)c4ccc(Cl)cc4)C1)c5ccccc5

>  <PubMed ID>
25221659

$$$$

  Marvin  08031817322D          

 30 33  0  0  0  0            999 V2000
   -0.3178   -0.5418    0.0000 C   0  0  0  0  0  0  0  0  0  0  0  0
   -1.1428   -0.5418    0.0000 S   0  0  0  0  0  0  0  0  0  0  0  0
   -1.9678   -0.5418    0.0000 O   0  0  0  0  0  0  0  0  0  0  0  0
   -1.5553   -1.2562    0.0000 O   0  0  0  0  0  0  0  0  0  0  0  0
   -1.1428    0.2832    0.0000 C   0  0  0  0  0  0  0  0  0  0  0  0
   -1.8572    0.6957    0.0000 C   0  0  0  0  0  0  0  0  0  0  0  0
   -1.8572    1.5207    0.0000 C   0  0  0  0  0  0  0  0  0  0  0  0
   -1.1428    1.9332    0.0000 N   0  0  0  0  0  0  0  0  0  0  0  0
   -0.4283    1.5207    0.0000 C   0  0  0  0  0  0  0  0  0  0  0  0
   -0.4283    0.6957    0.0000 C   0  0  0  0  0  0  0  0  0  0  0  0
    0.3563    0.4408    0.0000 C   0  0  0  0  0  0  0  0  0  0  0  0
    0.6113   -0.3438    0.0000 S   0  0  0  0  0  0  0  0  0  0  0  0
    0.0592   -0.9569    0.0000 C   0  0  0  0  0  0  0  0  0  0  0  0
   -0.7477   -0.7854    0.0000 C   0  0  0  0  0  0  0  0  0  0  0  0
   -1.2998   -1.3985    0.0000 C   0  0  0  0  0  0  0  0  0  0  0  0
   -1.0448   -2.1831    0.0000 C   0  0  0  0  0  0  0  0  0  0  0  0
   -1.5969   -2.7962    0.0000 Cl  0  0  0  0  0  0  0  0  0  0  0  0
   -0.2379   -2.3546    0.0000 C   0  0  0  0  0  0  0  0  0  0  0  0
    0.3142   -1.7416    0.0000 C   0  0  0  0  0  0  0  0  0  0  0  0
    1.1211   -1.9131    0.0000 Cl  0  0  0  0  0  0  0  0  0  0  0  0
    0.8412    1.1082    0.0000 C   0  0  0  0  0  0  0  0  0  0  0  0
    1.6617    1.1945    0.0000 C   0  0  0  0  0  0  0  0  0  0  0  0
    2.1466    0.5270    0.0000 C   0  0  0  0  0  0  0  0  0  0  0  0
    1.8111   -0.2267    0.0000 C   0  0  0  0  0  0  0  0  0  0  0  0
    0.9906   -0.3129    0.0000 O   0  0  0  0  0  0  0  0  0  0  0  0
    2.2960   -0.8941    0.0000 O   0  0  0  0  0  0  0  0  0  0  0  0
    1.9973    1.9481    0.0000 C   0  0  0  0  0  0  0  0  0  0  0  0
    1.5124    2.6156    0.0000 C   0  0  0  0  0  0  0  0  0  0  0  0
    0.6919    2.5293    0.0000 C   0  0  0  0  0  0  0  0  0  0  0  0
    0.3563    1.7757    0.0000 N   0  0  0  0  0  0  0  0  0  0  0  0
  1  2  1  0  0  0  0
  2  3  2  0  0  0  0
  2  4  2  0  0  0  0
  2  5  1  0  0  0  0
  5  6  1  0  0  0  0
  6  7  2  0  0  0  0
  7  8  1  0  0  0  0
  8  9  2  0  0  0  0
  9 10  1  0  0  0  0
  5 10  2  0  0  0  0
 10 11  1  0  0  0  0
 11 12  1  0  0  0  0
 12 13  1  0  0  0  0
 13 14  1  0  0  0  0
 14 15  2  0  0  0  0
 15 16  1  0  0  0  0
 16 17  1  0  0  0  0
 16 18  2  0  0  0  0
 18 19  1  0  0  0  0
 13 19  2  0  0  0  0
 19 20  1  0  0  0  0
 11 21  2  0  0  0  0
 21 22  1  0  0  0  0
 22 23  1  0  0  0  0
 23 24  1  0  0  0  0
 24 25  2  0  0  0  0
 24 26  1  0  0  0  0
 22 27  1  0  0  0  0
 27 28  1  0  0  0  0
 28 29  1  0  0  0  0
 29 30  1  0  0  0  0
  9 30  1  0  0  0  0
 21 30  1  0  0  0  0
M  END
>  <Name>
CHEMBL482547

>  <Target_Uniprot>
P21731

>  <CHEMBL Canonical SMILES>
CS(=O)(=O)c1ccnc2c1c(Sc3ccc(Cl)cc3Cl)c4C(CC(=O)O)CCCn24

>  <PubMed ID>
19307115

$$$$

  Marvin  08031817322D          

 31 34  0  0  0  0            999 V2000
    2.7360    0.5056    0.0000 O   0  0  0  0  0  0  0  0  0  0  0  0
    2.7360    1.3306    0.0000 C   0  0  0  0  0  0  0  0  0  0  0  0
    3.4504    1.7431    0.0000 O   0  0  0  0  0  0  0  0  0  0  0  0
    2.0215    1.7431    0.0000 C   0  0  0  0  0  0  0  0  0  0  0  0
    2.0215    2.5681    0.0000 C   0  0  0  0  0  0  0  0  0  0  0  0
    1.3070    2.9806    0.0000 C   0  0  0  0  0  0  0  0  0  0  0  0
    0.5925    2.5681    0.0000 C   0  0  0  0  0  0  0  0  0  0  0  0
   -0.0525    3.0825    0.0000 S   0  0  0  0  0  0  0  0  0  0  0  0
   -0.8568    2.8989    0.0000 C   0  0  0  0  0  0  0  0  0  0  0  0
   -1.2147    2.1556    0.0000 C   0  0  0  0  0  0  0  0  0  0  0  0
   -2.0374    2.2172    0.0000 C   0  0  0  0  0  0  0  0  0  0  0  0
   -2.5022    1.5356    0.0000 C   0  0  0  0  0  0  0  0  0  0  0  0
   -2.1442    0.7923    0.0000 C   0  0  0  0  0  0  0  0  0  0  0  0
   -1.3215    0.7306    0.0000 C   0  0  0  0  0  0  0  0  0  0  0  0
   -0.8568    1.4123    0.0000 C   0  0  0  0  0  0  0  0  0  0  0  0
   -0.0525    1.2287    0.0000 C   0  0  0  0  0  0  0  0  0  0  0  0
    0.1311    0.4244    0.0000 S   0  0  0  0  0  0  0  0  0  0  0  0
   -0.4737   -0.1368    0.0000 C   0  0  0  0  0  0  0  0  0  0  0  0
   -0.2901   -0.9411    0.0000 C   0  0  0  0  0  0  0  0  0  0  0  0
   -0.8948   -1.5022    0.0000 N   0  0  0  0  0  0  0  0  0  0  0  0
   -0.7113   -2.3065    0.0000 S   0  0  0  0  0  0  0  0  0  0  0  0
    0.0931   -2.1230    0.0000 O   0  0  0  0  0  0  0  0  0  0  0  0
   -1.5156   -2.4901    0.0000 O   0  0  0  0  0  0  0  0  0  0  0  0
   -0.5277   -3.1109    0.0000 C   0  0  0  0  0  0  0  0  0  0  0  0
   -1.1325   -3.6720    0.0000 C   0  0  0  0  0  0  0  0  0  0  0  0
   -0.9489   -4.4763    0.0000 C   0  0  0  0  0  0  0  0  0  0  0  0
   -0.1605   -4.7195    0.0000 C   0  0  0  0  0  0  0  0  0  0  0  0
    0.4442   -4.1583    0.0000 C   0  0  0  0  0  0  0  0  0  0  0  0
    0.2607   -3.3540    0.0000 C   0  0  0  0  0  0  0  0  0  0  0  0
    0.5925    1.7431    0.0000 C   0  0  0  0  0  0  0  0  0  0  0  0
    1.3070    1.3306    0.0000 C   0  0  0  0  0  0  0  0  0  0  0  0
  1  2  1  0  0  0  0
  2  3  2  0  0  0  0
  2  4  1  0  0  0  0
  4  5  1  0  0  0  0
  5  6  2  0  0  0  0
  6  7  1  0  0  0  0
  7  8  1  0  0  0  0
  8  9  1  0  0  0  0
  9 10  1  0  0  0  0
 10 11  1  0  0  0  0
 11 12  2  0  0  0  0
 12 13  1  0  0  0  0
 13 14  2  0  0  0  0
 14 15  1  0  0  0  0
 10 15  2  0  0  0  0
 15 16  1  0  0  0  0
 16 17  1  0  0  0  0
 17 18  1  0  0  0  0
 18 19  1  0  0  0  0
 19 20  1  0  0  0  0
 20 21  1  0  0  0  0
 21 22  2  0  0  0  0
 21 23  2  0  0  0  0
 21 24  1  0  0  0  0
 24 25  1  0  0  0  0
 25 26  2  0  0  0  0
 26 27  1  0  0  0  0
 27 28  2  0  0  0  0
 28 29  1  0  0  0  0
 24 29  2  0  0  0  0
 16 30  1  0  0  0  0
  7 30  2  0  0  0  0
 30 31  1  0  0  0  0
  4 31  2  0  0  0  0
M  END
>  <Name>
CHEMBL114901

>  <Target_Uniprot>
P21731

>  <CHEMBL Canonical SMILES>
OC(=O)c1ccc2SCc3ccccc3C(SCCNS(=O)(=O)c4ccccc4)c2c1

>  <PubMed ID>
1388207

$$$$

  Marvin  08031817322D          

 31 35  0  0  0  0            999 V2000
   -2.3008   -2.8683    0.0000 C   0  0  0  0  0  0  0  0  0  0  0  0
   -1.5863   -2.4558    0.0000 C   0  0  0  0  0  0  0  0  0  0  0  0
   -1.5863   -1.6308    0.0000 C   0  0  0  0  0  0  0  0  0  0  0  0
   -0.8719   -1.2183    0.0000 C   0  0  0  0  0  0  0  0  0  0  0  0
   -0.1574   -1.6308    0.0000 C   0  0  0  0  0  0  0  0  0  0  0  0
   -0.1574   -2.4558    0.0000 C   0  0  0  0  0  0  0  0  0  0  0  0
    0.6272   -2.7108    0.0000 N   0  0  0  0  0  0  0  0  0  0  0  0
    1.1122   -2.0433    0.0000 C   0  0  0  0  0  0  0  0  0  0  0  0
    0.6272   -1.3759    0.0000 N   0  0  0  0  0  0  0  0  0  0  0  0
    0.8822   -0.5913    0.0000 C   0  0  0  0  0  0  0  0  0  0  0  0
    0.3301    0.0218    0.0000 C   0  0  0  0  0  0  0  0  0  0  0  0
    0.5851    0.8064    0.0000 C   0  0  0  0  0  0  0  0  0  0  0  0
    1.4026    0.9172    0.0000 C   0  0  0  0  0  0  0  0  0  0  0  0
    1.8044    0.1966    0.0000 C   0  0  0  0  0  0  0  0  0  0  0  0
    2.6293    0.1843    0.0000 C   0  0  0  0  0  0  0  0  0  0  0  0
    3.0524    0.8925    0.0000 C   0  0  0  0  0  0  0  0  0  0  0  0
    2.6507    1.6130    0.0000 C   0  0  0  0  0  0  0  0  0  0  0  0
    1.8258    1.6254    0.0000 C   0  0  0  0  0  0  0  0  0  0  0  0
    1.5359    2.3978    0.0000 C   0  0  0  0  0  0  0  0  0  0  0  0
    0.7513    2.6527    0.0000 O   0  0  0  0  0  0  0  0  0  0  0  0
    0.0627    2.1982    0.0000 C   0  0  0  0  0  0  0  0  0  0  0  0
   -0.6119    2.6731    0.0000 C   0  0  0  0  0  0  0  0  0  0  0  0
   -1.3605    2.3263    0.0000 C   0  0  0  0  0  0  0  0  0  0  0  0
   -1.4344    1.5046    0.0000 C   0  0  0  0  0  0  0  0  0  0  0  0
   -0.7598    1.0298    0.0000 C   0  0  0  0  0  0  0  0  0  0  0  0
   -0.0112    1.3766    0.0000 C   0  0  0  0  0  0  0  0  0  0  0  0
   -2.1830    1.1579    0.0000 C   0  0  0  0  0  0  0  0  0  0  0  0
   -2.2569    0.3362    0.0000 O   0  0  0  0  0  0  0  0  0  0  0  0
   -2.8576    1.6327    0.0000 O   0  0  0  0  0  0  0  0  0  0  0  0
   -0.8719   -2.8683    0.0000 C   0  0  0  0  0  0  0  0  0  0  0  0
   -0.8719   -3.6933    0.0000 C   0  0  0  0  0  0  0  0  0  0  0  0
  1  2  1  0  0  0  0
  2  3  1  0  0  0  0
  3  4  2  0  0  0  0
  4  5  1  0  0  0  0
  5  6  2  0  0  0  0
  6  7  1  0  0  0  0
  7  8  2  0  0  0  0
  8  9  1  0  0  0  0
  5  9  1  0  0  0  0
  9 10  1  0  0  0  0
 10 11  1  0  0  0  0
 11 12  2  0  0  0  0
 12 13  1  0  0  0  0
 13 14  1  0  0  0  0
 14 15  2  0  0  0  0
 15 16  1  0  0  0  0
 16 17  2  0  0  0  0
 17 18  1  0  0  0  0
 13 18  2  0  0  0  0
 18 19  1  0  0  0  0
 19 20  1  0  0  0  0
 20 21  1  0  0  0  0
 21 22  1  0  0  0  0
 22 23  2  0  0  0  0
 23 24  1  0  0  0  0
 24 25  2  0  0  0  0
 25 26  1  0  0  0  0
 12 26  1  0  0  0  0
 21 26  2  0  0  0  0
 24 27  1  0  0  0  0
 27 28  2  0  0  0  0
 27 29  1  0  0  0  0
  6 30  1  0  0  0  0
  2 30  2  0  0  0  0
 30 31  1  0  0  0  0
M  END
>  <Name>
CHEMBL115224

>  <Target_Uniprot>
P21731

>  <CHEMBL Canonical SMILES>
Cc1ccc2c(ncn2C\C=C\3/c4ccccc4COc5ccc(cc35)C(=O)O)c1C

>  <PubMed ID>
1388208

$$$$

  Marvin  08031817322D          

 29 30  0  0  0  0            999 V2000
   -1.7985   -5.1918    0.0000 C   0  0  0  0  0  0  0  0  0  0  0  0
   -1.0840   -4.7793    0.0000 C   0  0  0  0  0  0  0  0  0  0  0  0
   -1.0840   -3.9543    0.0000 C   0  0  0  0  0  0  0  0  0  0  0  0
   -0.3696   -3.5418    0.0000 C   0  0  0  0  0  0  0  0  0  0  0  0
   -0.3696   -2.7168    0.0000 C   0  0  0  0  0  0  0  0  0  0  0  0
    0.3449   -2.3043    0.0000 N   0  0  0  0  0  0  0  0  0  0  0  0
    0.3449   -1.4793    0.0000 C   0  0  0  0  0  0  0  0  0  0  0  0
   -0.3696   -1.0668    0.0000 O   0  0  0  0  0  0  0  0  0  0  0  0
    1.0594   -1.0668    0.0000 N   0  0  0  0  0  0  0  0  0  0  0  0
    1.0594   -0.2418    0.0000 S   0  0  0  0  0  0  0  0  0  0  0  0
    1.8844   -0.2418    0.0000 O   0  0  0  0  0  0  0  0  0  0  0  0
    0.2344   -0.2418    0.0000 O   0  0  0  0  0  0  0  0  0  0  0  0
    1.0594    0.5832    0.0000 C   0  0  0  0  0  0  0  0  0  0  0  0
    1.7739    0.9957    0.0000 C   0  0  0  0  0  0  0  0  0  0  0  0
    1.7739    1.8207    0.0000 C   0  0  0  0  0  0  0  0  0  0  0  0
    1.0594    2.2332    0.0000 C   0  0  0  0  0  0  0  0  0  0  0  0
    0.3449    1.8207    0.0000 C   0  0  0  0  0  0  0  0  0  0  0  0
    0.3449    0.9957    0.0000 C   0  0  0  0  0  0  0  0  0  0  0  0
   -0.3696    0.5832    0.0000 N   0  0  0  0  0  0  0  0  0  0  0  0
   -1.0840    0.9957    0.0000 C   0  0  0  0  0  0  0  0  0  0  0  0
   -1.0840    1.8207    0.0000 C   0  0  0  0  0  0  0  0  0  0  0  0
   -1.7985    2.2332    0.0000 C   0  0  0  0  0  0  0  0  0  0  0  0
   -2.5130    1.8207    0.0000 C   0  0  0  0  0  0  0  0  0  0  0  0
   -3.2274    2.2332    0.0000 C   0  0  0  0  0  0  0  0  0  0  0  0
   -2.5130    0.9957    0.0000 C   0  0  0  0  0  0  0  0  0  0  0  0
   -1.7985    0.5832    0.0000 C   0  0  0  0  0  0  0  0  0  0  0  0
    2.4883    2.2332    0.0000 N   0  3  0  0  0  0  0  0  0  0  0  0
    2.4883    3.0582    0.0000 O   0  0  0  0  0  0  0  0  0  0  0  0
    3.2028    1.8207    0.0000 O   0  5  0  0  0  0  0  0  0  0  0  0
  1  2  1  0  0  0  0
  2  3  1  0  0  0  0
  3  4  1  0  0  0  0
  4  5  1  0  0  0  0
  5  6  1  0  0  0  0
  6  7  1  0  0  0  0
  7  8  2  0  0  0  0
  7  9  1  0  0  0  0
  9 10  1  0  0  0  0
 10 11  2  0  0  0  0
 10 12  2  0  0  0  0
 10 13  1  0  0  0  0
 13 14  1  0  0  0  0
 14 15  2  0  0  0  0
 15 16  1  0  0  0  0
 16 17  2  0  0  0  0
 17 18  1  0  0  0  0
 13 18  2  0  0  0  0
 18 19  1  0  0  0  0
 19 20  1  0  0  0  0
 20 21  1  0  0  0  0
 21 22  2  0  0  0  0
 22 23  1  0  0  0  0
 23 24  1  0  0  0  0
 23 25  2  0  0  0  0
 25 26  1  0  0  0  0
 20 26  2  0  0  0  0
 15 27  1  0  0  0  0
 27 28  2  0  0  0  0
 27 29  1  0  0  0  0
M  CHG  2  27   1  29  -1
M  END
>  <Name>
CHEMBL210964

>  <Target_Uniprot>
P21731

>  <CHEMBL Canonical SMILES>
CCCCCNC(=O)NS(=O)(=O)c1cc(ccc1Nc2ccc(C)cc2)[N+](=O)[O-]

>  <PubMed ID>
16759113

$$$$

  Marvin  08031817322D          

 33 37  0  0  0  0            999 V2000
    2.1181    3.6445    0.0000 C   0  0  0  0  0  0  0  0  0  0  0  0
    2.1181    2.8195    0.0000 O   0  0  0  0  0  0  0  0  0  0  0  0
    1.4036    2.4070    0.0000 C   0  0  0  0  0  0  0  0  0  0  0  0
    0.6891    2.8195    0.0000 C   0  0  0  0  0  0  0  0  0  0  0  0
   -0.0254    2.4070    0.0000 C   0  0  0  0  0  0  0  0  0  0  0  0
   -0.8100    2.6619    0.0000 N   0  0  0  0  0  0  0  0  0  0  0  0
   -1.2949    1.9945    0.0000 C   0  0  0  0  0  0  0  0  0  0  0  0
   -0.8100    1.3271    0.0000 N   0  0  0  0  0  0  0  0  0  0  0  0
   -1.0649    0.5424    0.0000 C   0  0  0  0  0  0  0  0  0  0  0  0
   -0.5129   -0.0706    0.0000 C   0  0  0  0  0  0  0  0  0  0  0  0
   -0.7678   -0.8553    0.0000 C   0  0  0  0  0  0  0  0  0  0  0  0
   -1.5854   -0.9660    0.0000 C   0  0  0  0  0  0  0  0  0  0  0  0
   -1.9871   -0.2454    0.0000 C   0  0  0  0  0  0  0  0  0  0  0  0
   -2.8120   -0.2331    0.0000 C   0  0  0  0  0  0  0  0  0  0  0  0
   -3.2352   -0.9413    0.0000 C   0  0  0  0  0  0  0  0  0  0  0  0
   -2.8334   -1.6619    0.0000 C   0  0  0  0  0  0  0  0  0  0  0  0
   -2.0085   -1.6742    0.0000 C   0  0  0  0  0  0  0  0  0  0  0  0
   -1.7186   -2.4466    0.0000 C   0  0  0  0  0  0  0  0  0  0  0  0
   -0.9340   -2.7016    0.0000 O   0  0  0  0  0  0  0  0  0  0  0  0
   -0.2455   -2.2471    0.0000 C   0  0  0  0  0  0  0  0  0  0  0  0
    0.4291   -2.7220    0.0000 C   0  0  0  0  0  0  0  0  0  0  0  0
    1.1777   -2.3752    0.0000 C   0  0  0  0  0  0  0  0  0  0  0  0
    1.2517   -1.5535    0.0000 C   0  0  0  0  0  0  0  0  0  0  0  0
    0.5770   -1.0786    0.0000 C   0  0  0  0  0  0  0  0  0  0  0  0
   -0.1715   -1.4254    0.0000 C   0  0  0  0  0  0  0  0  0  0  0  0
    2.0002   -1.2067    0.0000 C   0  0  0  0  0  0  0  0  0  0  0  0
    2.0742   -0.3850    0.0000 O   0  0  0  0  0  0  0  0  0  0  0  0
    2.6749   -1.6816    0.0000 O   0  0  0  0  0  0  0  0  0  0  0  0
   -0.0254    1.5820    0.0000 C   0  0  0  0  0  0  0  0  0  0  0  0
    0.6891    1.1695    0.0000 C   0  0  0  0  0  0  0  0  0  0  0  0
    1.4036    1.5820    0.0000 C   0  0  0  0  0  0  0  0  0  0  0  0
    2.1181    1.1695    0.0000 O   0  0  0  0  0  0  0  0  0  0  0  0
    2.1181    0.3445    0.0000 C   0  0  0  0  0  0  0  0  0  0  0  0
  1  2  1  0  0  0  0
  2  3  1  0  0  0  0
  3  4  2  0  0  0  0
  4  5  1  0  0  0  0
  5  6  1  0  0  0  0
  6  7  2  0  0  0  0
  7  8  1  0  0  0  0
  8  9  1  0  0  0  0
  9 10  1  0  0  0  0
 10 11  2  0  0  0  0
 11 12  1  0  0  0  0
 12 13  1  0  0  0  0
 13 14  2  0  0  0  0
 14 15  1  0  0  0  0
 15 16  2  0  0  0  0
 16 17  1  0  0  0  0
 12 17  2  0  0  0  0
 17 18  1  0  0  0  0
 18 19  1  0  0  0  0
 19 20  1  0  0  0  0
 20 21  1  0  0  0  0
 21 22  2  0  0  0  0
 22 23  1  0  0  0  0
 23 24  2  0  0  0  0
 24 25  1  0  0  0  0
 11 25  1  0  0  0  0
 20 25  2  0  0  0  0
 23 26  1  0  0  0  0
 26 27  2  0  0  0  0
 26 28  1  0  0  0  0
  8 29  1  0  0  0  0
  5 29  2  0  0  0  0
 29 30  1  0  0  0  0
 30 31  2  0  0  0  0
  3 31  1  0  0  0  0
 31 32  1  0  0  0  0
 32 33  1  0  0  0  0
M  END
>  <Name>
CHEMBL114213

>  <Target_Uniprot>
P21731

>  <CHEMBL Canonical SMILES>
COc1cc2ncn(C\C=C\3/c4ccccc4COc5ccc(cc35)C(=O)O)c2cc1OC

>  <PubMed ID>
1388208

$$$$

  Marvin  08031817322D          

 33 36  0  0  1  0            999 V2000
   -0.1964   -2.0724    0.0000 O   0  0  0  0  0  0  0  0  0  0  0  0
    0.3556   -2.6855    0.0000 C   0  0  0  0  0  0  0  0  0  0  0  0
    0.1007   -3.4701    0.0000 O   0  0  0  0  0  0  0  0  0  0  0  0
    1.1626   -2.5139    0.0000 C   0  0  0  0  0  0  0  0  0  0  0  0
    1.4175   -1.7293    0.0000 C   0  0  0  0  0  0  0  0  0  0  0  0
    2.2245   -1.5578    0.0000 C   0  0  0  0  0  0  0  0  0  0  0  0
    2.7765   -2.1709    0.0000 C   0  0  0  0  0  0  0  0  0  0  0  0
    3.5835   -1.9994    0.0000 C   0  0  0  0  0  0  0  0  0  0  0  0
    3.8384   -1.2147    0.0000 C   0  0  0  0  0  0  0  0  0  0  0  0
    3.2864   -0.6017    0.0000 C   0  0  0  0  0  0  0  0  0  0  0  0
    2.4794   -0.7732    0.0000 C   0  0  0  0  0  0  0  0  0  0  0  0
    1.9274   -0.1601    0.0000 C   0  0  0  0  0  0  0  0  0  0  0  0
    2.1823    0.6245    0.0000 C   0  0  1  0  0  0  0  0  0  0  0  0
    2.9670    0.8795    0.0000 C   0  0  0  0  0  0  0  0  0  0  0  0
    2.9670    1.7045    0.0000 C   0  0  0  0  0  0  0  0  0  0  0  0
    2.1823    1.9594    0.0000 C   0  0  0  0  0  0  0  0  0  0  0  0
    1.6974    1.2920    0.0000 C   0  0  2  0  0  0  0  0  0  0  0  0
    0.8724    1.2920    0.0000 C   0  0  0  0  0  0  0  0  0  0  0  0
    0.3875    1.9594    0.0000 O   0  0  0  0  0  0  0  0  0  0  0  0
   -0.3971    1.7045    0.0000 C   0  0  0  0  0  0  0  0  0  0  0  0
   -0.3971    0.8795    0.0000 C   0  0  0  0  0  0  0  0  0  0  0  0
    0.3875    0.6245    0.0000 N   0  0  0  0  0  0  0  0  0  0  0  0
   -1.0646    0.3946    0.0000 C   0  0  0  0  0  0  0  0  0  0  0  0
   -0.9783   -0.4259    0.0000 O   0  0  0  0  0  0  0  0  0  0  0  0
   -1.8182    0.7301    0.0000 N   0  0  0  0  0  0  0  0  0  0  0  0
   -2.4857    0.2452    0.0000 C   0  0  0  0  0  0  0  0  0  0  0  0
   -3.2394    0.5807    0.0000 C   0  0  0  0  0  0  0  0  0  0  0  0
   -3.3256    1.4012    0.0000 C   0  0  0  0  0  0  0  0  0  0  0  0
   -4.0793    1.7368    0.0000 C   0  0  0  0  0  0  0  0  0  0  0  0
   -4.7467    1.2519    0.0000 C   0  0  0  0  0  0  0  0  0  0  0  0
   -5.5004    1.5874    0.0000 Cl  0  0  0  0  0  0  0  0  0  0  0  0
   -4.6605    0.4314    0.0000 C   0  0  0  0  0  0  0  0  0  0  0  0
   -3.9068    0.0958    0.0000 C   0  0  0  0  0  0  0  0  0  0  0  0
  1  2  1  0  0  0  0
  2  3  2  0  0  0  0
  2  4  1  0  0  0  0
  4  5  1  0  0  0  0
  5  6  1  0  0  0  0
  6  7  1  0  0  0  0
  7  8  2  0  0  0  0
  8  9  1  0  0  0  0
  9 10  2  0  0  0  0
 10 11  1  0  0  0  0
  6 11  2  0  0  0  0
 11 12  1  0  0  0  0
 13 12  1  6  0  0  0
 13 14  1  0  0  0  0
 14 15  1  0  0  0  0
 15 16  1  0  0  0  0
 16 17  1  0  0  0  0
 13 17  1  0  0  0  0
 17 18  1  1  0  0  0
 18 19  1  0  0  0  0
 19 20  1  0  0  0  0
 20 21  2  0  0  0  0
 21 22  1  0  0  0  0
 18 22  2  0  0  0  0
 21 23  1  0  0  0  0
 23 24  2  0  0  0  0
 23 25  1  0  0  0  0
 25 26  1  0  0  0  0
 26 27  1  0  0  0  0
 27 28  1  0  0  0  0
 28 29  2  0  0  0  0
 29 30  1  0  0  0  0
 30 31  1  0  0  0  0
 30 32  2  0  0  0  0
 32 33  1  0  0  0  0
 27 33  2  0  0  0  0
M  END
>  <Name>
CHEMBL23711

>  <Target_Uniprot>
P21731

>  <CHEMBL Canonical SMILES>
OC(=O)CCc1ccccc1C[C@H]2CCC[C@@H]2c3occ(n3)C(=O)NCc4ccc(Cl)cc4

$$$$

  Marvin  08031817322D          

 31 35  0  0  0  0            999 V2000
   -2.9461   -2.4958    0.0000 C   0  0  0  0  0  0  0  0  0  0  0  0
   -2.2317   -2.9083    0.0000 O   0  0  0  0  0  0  0  0  0  0  0  0
   -1.5172   -2.4958    0.0000 C   0  0  0  0  0  0  0  0  0  0  0  0
   -1.5172   -1.6708    0.0000 C   0  0  0  0  0  0  0  0  0  0  0  0
   -0.8027   -1.2583    0.0000 C   0  0  0  0  0  0  0  0  0  0  0  0
   -0.0882   -1.6708    0.0000 C   0  0  0  0  0  0  0  0  0  0  0  0
   -0.0882   -2.4958    0.0000 C   0  0  0  0  0  0  0  0  0  0  0  0
   -0.8027   -2.9083    0.0000 C   0  0  0  0  0  0  0  0  0  0  0  0
    0.6964   -2.7507    0.0000 N   0  0  0  0  0  0  0  0  0  0  0  0
    1.1813   -2.0833    0.0000 C   0  0  0  0  0  0  0  0  0  0  0  0
    0.6964   -1.4158    0.0000 N   0  0  0  0  0  0  0  0  0  0  0  0
    0.9513   -0.6312    0.0000 C   0  0  0  0  0  0  0  0  0  0  0  0
    0.3993   -0.0181    0.0000 C   0  0  0  0  0  0  0  0  0  0  0  0
    0.6542    0.7665    0.0000 C   0  0  0  0  0  0  0  0  0  0  0  0
    1.4718    0.8773    0.0000 C   0  0  0  0  0  0  0  0  0  0  0  0
    1.8735    0.1567    0.0000 C   0  0  0  0  0  0  0  0  0  0  0  0
    2.6984    0.1443    0.0000 C   0  0  0  0  0  0  0  0  0  0  0  0
    3.1216    0.8526    0.0000 C   0  0  0  0  0  0  0  0  0  0  0  0
    2.7198    1.5731    0.0000 C   0  0  0  0  0  0  0  0  0  0  0  0
    1.8949    1.5855    0.0000 C   0  0  0  0  0  0  0  0  0  0  0  0
    1.6050    2.3579    0.0000 C   0  0  0  0  0  0  0  0  0  0  0  0
    0.8204    2.6128    0.0000 O   0  0  0  0  0  0  0  0  0  0  0  0
    0.1319    2.1583    0.0000 C   0  0  0  0  0  0  0  0  0  0  0  0
   -0.5427    2.6332    0.0000 C   0  0  0  0  0  0  0  0  0  0  0  0
   -1.2913    2.2864    0.0000 C   0  0  0  0  0  0  0  0  0  0  0  0
   -1.3653    1.4647    0.0000 C   0  0  0  0  0  0  0  0  0  0  0  0
   -0.6907    0.9898    0.0000 C   0  0  0  0  0  0  0  0  0  0  0  0
    0.0579    1.3366    0.0000 C   0  0  0  0  0  0  0  0  0  0  0  0
   -2.1138    1.1179    0.0000 C   0  0  0  0  0  0  0  0  0  0  0  0
   -2.1878    0.2963    0.0000 O   0  0  0  0  0  0  0  0  0  0  0  0
   -2.7885    1.5928    0.0000 O   0  0  0  0  0  0  0  0  0  0  0  0
  1  2  1  0  0  0  0
  2  3  1  0  0  0  0
  3  4  1  0  0  0  0
  4  5  2  0  0  0  0
  5  6  1  0  0  0  0
  6  7  2  0  0  0  0
  7  8  1  0  0  0  0
  3  8  2  0  0  0  0
  7  9  1  0  0  0  0
  9 10  2  0  0  0  0
 10 11  1  0  0  0  0
  6 11  1  0  0  0  0
 11 12  1  0  0  0  0
 12 13  1  0  0  0  0
 13 14  2  0  0  0  0
 14 15  1  0  0  0  0
 15 16  1  0  0  0  0
 16 17  2  0  0  0  0
 17 18  1  0  0  0  0
 18 19  2  0  0  0  0
 19 20  1  0  0  0  0
 15 20  2  0  0  0  0
 20 21  1  0  0  0  0
 21 22  1  0  0  0  0
 22 23  1  0  0  0  0
 23 24  1  0  0  0  0
 24 25  2  0  0  0  0
 25 26  1  0  0  0  0
 26 27  2  0  0  0  0
 27 28  1  0  0  0  0
 14 28  1  0  0  0  0
 23 28  2  0  0  0  0
 26 29  1  0  0  0  0
 29 30  2  0  0  0  0
 29 31  1  0  0  0  0
M  END
>  <Name>
CHEMBL114335

>  <Target_Uniprot>
P21731

>  <CHEMBL Canonical SMILES>
COc1ccc2c(c1)ncn2C\C=C\3/c4ccccc4COc5ccc(cc35)C(=O)O

>  <PubMed ID>
1388208

$$$$

  Marvin  08031817322D          

 37 41  0  0  0  0            999 V2000
    0.0805   -1.8868    0.0000 O   0  0  0  0  0  0  0  0  0  0  0  0
    0.5749   -2.5526    0.0000 C   0  0  0  0  0  0  0  0  0  0  0  0
    0.3890   -3.3599    0.0000 O   0  0  0  0  0  0  0  0  0  0  0  0
    1.3668   -2.3275    0.0000 C   0  0  0  0  0  0  0  0  0  0  0  0
    1.7758   -1.6213    0.0000 O   0  0  0  0  0  0  0  0  0  0  0  0
    2.5636   -1.4018    0.0000 C   0  0  0  0  0  0  0  0  0  0  0  0
    3.1165   -2.0180    0.0000 C   0  0  0  0  0  0  0  0  0  0  0  0
    3.9292   -1.8483    0.0000 C   0  0  0  0  0  0  0  0  0  0  0  0
    4.1847   -1.0637    0.0000 C   0  0  0  0  0  0  0  0  0  0  0  0
    3.6289   -0.4482    0.0000 C   0  0  0  0  0  0  0  0  0  0  0  0
    2.8194   -0.6236    0.0000 C   0  0  0  0  0  0  0  0  0  0  0  0
    2.3206    0.0101    0.0000 C   0  0  0  0  0  0  0  0  0  0  0  0
    2.4738    0.7738    0.0000 C   0  0  0  0  0  0  0  0  0  0  0  0
    3.3411    0.9598    0.0000 C   0  0  0  0  0  0  0  0  0  0  0  0
    3.8819    1.7746    0.0000 C   0  0  0  0  0  0  0  0  0  0  0  0
    3.3266    2.4823    0.0000 C   0  0  0  0  0  0  0  0  0  0  0  0
    2.6615    2.0420    0.0000 C   0  0  0  0  0  0  0  0  0  0  0  0
    3.4860    1.5637    0.0000 O   0  0  0  0  0  0  0  0  0  0  0  0
    2.0682    1.4790    0.0000 C   0  0  0  0  0  0  0  0  0  0  0  0
    1.1922    1.4669    0.0000 C   0  0  0  0  0  0  0  0  0  0  0  0
    0.6989    2.1379    0.0000 O   0  0  0  0  0  0  0  0  0  0  0  0
   -0.0882    1.8830    0.0000 C   0  0  0  0  0  0  0  0  0  0  0  0
   -0.0875    1.0580    0.0000 C   0  0  0  0  0  0  0  0  0  0  0  0
    0.6959    0.7980    0.0000 N   0  0  0  0  0  0  0  0  0  0  0  0
   -0.6842    0.5044    0.0000 C   0  0  0  0  0  0  0  0  0  0  0  0
   -0.6807   -0.3134    0.0000 O   0  0  0  0  0  0  0  0  0  0  0  0
   -1.4288    0.8401    0.0000 N   0  0  0  0  0  0  0  0  0  0  0  0
   -2.1588    0.4673    0.0000 C   0  0  0  0  0  0  0  0  0  0  0  0
   -2.9440    0.7014    0.0000 C   0  0  0  0  0  0  0  0  0  0  0  0
   -3.6544    0.3048    0.0000 C   0  0  0  0  0  0  0  0  0  0  0  0
   -4.4173    0.5502    0.0000 C   0  0  0  0  0  0  0  0  0  0  0  0
   -5.0749    0.0976    0.0000 C   0  0  0  0  0  0  0  0  0  0  0  0
   -5.8241    0.4330    0.0000 C   0  0  0  0  0  0  0  0  0  0  0  0
   -6.4959   -0.0549    0.0000 C   0  0  0  0  0  0  0  0  0  0  0  0
   -6.4068   -0.8778    0.0000 C   0  0  0  0  0  0  0  0  0  0  0  0
   -5.6493   -1.2115    0.0000 C   0  0  0  0  0  0  0  0  0  0  0  0
   -4.9812   -0.7191    0.0000 C   0  0  0  0  0  0  0  0  0  0  0  0
  1  2  1  0  0  0  0
  2  3  2  0  0  0  0
  2  4  1  0  0  0  0
  4  5  1  0  0  0  0
  5  6  1  0  0  0  0
  6  7  1  0  0  0  0
  7  8  2  0  0  0  0
  8  9  1  0  0  0  0
  9 10  2  0  0  0  0
 10 11  1  0  0  0  0
  6 11  2  0  0  0  0
 11 12  1  0  0  0  0
 12 13  1  0  0  0  0
 13 14  1  0  0  0  0
 14 15  1  0  0  0  0
 15 16  1  0  0  0  0
 16 17  1  0  0  0  0
 17 18  1  0  0  0  0
 14 18  1  0  0  0  0
 17 19  1  0  0  0  0
 13 19  1  0  0  0  0
 19 20  1  0  0  0  0
 20 21  1  0  0  0  0
 21 22  1  0  0  0  0
 22 23  2  0  0  0  0
 23 24  1  0  0  0  0
 20 24  2  0  0  0  0
 23 25  1  0  0  0  0
 25 26  2  0  0  0  0
 25 27  1  0  0  0  0
 27 28  1  0  0  0  0
 28 29  1  0  0  0  0
 29 30  1  0  0  0  0
 30 31  1  0  0  0  0
 31 32  1  0  0  0  0
 32 33  1  0  0  0  0
 33 34  1  0  0  0  0
 34 35  1  0  0  0  0
 35 36  1  0  0  0  0
 36 37  1  0  0  0  0
 32 37  1  0  0  0  0
M  END
>  <Name>
CHEMBL30832

>  <Target_Uniprot>
P21731

>  <CHEMBL Canonical SMILES>
OC(=O)COc1ccccc1CC2C3CCC(O3)C2c4occ(n4)C(=O)NCCCCC5CCCCC5

>  <PubMed ID>
8496908

$$$$

  Marvin  08031817322D          

 33 36  0  0  0  0            999 V2000
   -0.7279   -4.8872    0.0000 C   0  0  0  0  0  0  0  0  0  0  0  0
   -1.2724   -4.2645    0.0000 C   0  0  0  0  0  0  0  0  0  0  0  0
   -1.7027   -3.5581    0.0000 C   0  0  0  0  0  0  0  0  0  0  0  0
   -1.9424   -4.7472    0.0000 C   0  0  0  0  0  0  0  0  0  0  0  0
   -0.6228   -3.7569    0.0000 C   0  0  0  0  0  0  0  0  0  0  0  0
   -0.5707   -2.9385    0.0000 C   0  0  0  0  0  0  0  0  0  0  0  0
   -0.0010   -2.3470    0.0000 N   0  0  0  0  0  0  0  0  0  0  0  0
   -0.0950   -1.5282    0.0000 C   0  0  0  0  0  0  0  0  0  0  0  0
   -0.8728   -1.2511    0.0000 O   0  0  0  0  0  0  0  0  0  0  0  0
    0.6306   -1.1271    0.0000 C   0  0  0  0  0  0  0  0  0  0  0  0
    1.4164   -1.3803    0.0000 C   0  0  0  0  0  0  0  0  0  0  0  0
    1.8974   -0.7136    0.0000 O   0  0  0  0  0  0  0  0  0  0  0  0
    1.4072   -0.0621    0.0000 C   0  0  0  0  0  0  0  0  0  0  0  0
    0.6287   -0.3051    0.0000 N   0  0  0  0  0  0  0  0  0  0  0  0
    1.6997    0.6635    0.0000 C   0  0  0  0  0  0  0  0  0  0  0  0
    2.5721    0.8381    0.0000 C   0  0  0  0  0  0  0  0  0  0  0  0
    3.1039    1.6690    0.0000 C   0  0  0  0  0  0  0  0  0  0  0  0
    2.5527    2.3629    0.0000 C   0  0  0  0  0  0  0  0  0  0  0  0
    1.9103    1.9139    0.0000 C   0  0  0  0  0  0  0  0  0  0  0  0
    2.7257    1.4289    0.0000 O   0  0  0  0  0  0  0  0  0  0  0  0
    1.3002    1.3687    0.0000 C   0  0  0  0  0  0  0  0  0  0  0  0
    0.3889    1.4447    0.0000 C   0  0  0  0  0  0  0  0  0  0  0  0
   -0.0630    2.1537    0.0000 C   0  0  0  0  0  0  0  0  0  0  0  0
    0.3477    2.8692    0.0000 C   0  0  0  0  0  0  0  0  0  0  0  0
   -0.0641    3.5791    0.0000 C   0  0  0  0  0  0  0  0  0  0  0  0
   -0.8869    3.5791    0.0000 C   0  0  0  0  0  0  0  0  0  0  0  0
   -1.2993    2.8659    0.0000 C   0  0  0  0  0  0  0  0  0  0  0  0
   -0.8887    2.1534    0.0000 C   0  0  0  0  0  0  0  0  0  0  0  0
   -1.3343    1.4495    0.0000 C   0  0  0  0  0  0  0  0  0  0  0  0
   -2.1451    1.2941    0.0000 C   0  0  0  0  0  0  0  0  0  0  0  0
   -2.5874    0.6029    0.0000 C   0  0  0  0  0  0  0  0  0  0  0  0
   -2.1020   -0.0578    0.0000 O   0  0  0  0  0  0  0  0  0  0  0  0
   -3.4028    0.6880    0.0000 O   0  0  0  0  0  0  0  0  0  0  0  0
  1  2  1  0  0  0  0
  2  3  1  0  0  0  0
  2  4  1  0  0  0  0
  2  5  1  0  0  0  0
  5  6  1  0  0  0  0
  6  7  1  0  0  0  0
  7  8  1  0  0  0  0
  8  9  2  0  0  0  0
  8 10  1  0  0  0  0
 10 11  2  0  0  0  0
 11 12  1  0  0  0  0
 12 13  1  0  0  0  0
 13 14  2  0  0  0  0
 10 14  1  0  0  0  0
 13 15  1  0  0  0  0
 15 16  1  0  0  0  0
 16 17  1  0  0  0  0
 17 18  1  0  0  0  0
 18 19  1  0  0  0  0
 19 20  1  0  0  0  0
 16 20  1  0  0  0  0
 19 21  1  0  0  0  0
 15 21  1  0  0  0  0
 21 22  1  0  0  0  0
 22 23  1  0  0  0  0
 23 24  1  0  0  0  0
 24 25  2  0  0  0  0
 25 26  1  0  0  0  0
 26 27  2  0  0  0  0
 27 28  1  0  0  0  0
 23 28  2  0  0  0  0
 28 29  1  0  0  0  0
 29 30  1  0  0  0  0
 30 31  1  0  0  0  0
 31 32  2  0  0  0  0
 31 33  1  0  0  0  0
M  END
>  <Name>
CHEMBL31850

>  <Target_Uniprot>
P21731

>  <CHEMBL Canonical SMILES>
CC(C)(C)CCNC(=O)c1coc(n1)C2C3CCC(O3)C2Cc4ccccc4CCC(=O)O

>  <PubMed ID>
8496908

$$$$

  Marvin  08031817322D          

 39 43  0  0  0  0            999 V2000
   -3.1841   -6.8684    0.0000 C   0  0  0  0  0  0  0  0  0  0  0  0
   -3.2157   -6.0385    0.0000 S   0  0  0  0  0  0  0  0  0  0  0  0
   -2.6216   -5.4575    0.0000 C   0  0  0  0  0  0  0  0  0  0  0  0
   -1.8709   -5.8019    0.0000 C   0  0  0  0  0  0  0  0  0  0  0  0
   -1.2062   -5.3257    0.0000 C   0  0  0  0  0  0  0  0  0  0  0  0
   -1.2855   -4.5061    0.0000 C   0  0  0  0  0  0  0  0  0  0  0  0
   -0.6137   -4.0295    0.0000 C   0  0  0  0  0  0  0  0  0  0  0  0
   -0.6772   -3.1954    0.0000 C   0  0  0  0  0  0  0  0  0  0  0  0
   -0.0315   -2.6667    0.0000 C   0  0  0  0  0  0  0  0  0  0  0  0
   -0.0549   -1.8422    0.0000 C   0  0  0  0  0  0  0  0  0  0  0  0
    0.5509   -1.2845    0.0000 N   0  0  0  0  0  0  0  0  0  0  0  0
    0.4297   -0.4678    0.0000 C   0  0  0  0  0  0  0  0  0  0  0  0
   -0.3555   -0.2123    0.0000 O   0  0  0  0  0  0  0  0  0  0  0  0
    1.1627   -0.0822    0.0000 C   0  0  0  0  0  0  0  0  0  0  0  0
    1.9414   -0.3324    0.0000 C   0  0  0  0  0  0  0  0  0  0  0  0
    2.4248    0.3329    0.0000 O   0  0  0  0  0  0  0  0  0  0  0  0
    1.9479    1.0246    0.0000 C   0  0  0  0  0  0  0  0  0  0  0  0
    1.1614    0.7411    0.0000 N   0  0  0  0  0  0  0  0  0  0  0  0
    2.2241    1.9040    0.0000 C   0  0  0  0  0  0  0  0  0  0  0  0
    2.9261    2.3203    0.0000 C   0  0  0  0  0  0  0  0  0  0  0  0
    3.4985    2.8292    0.0000 C   0  0  0  0  0  0  0  0  0  0  0  0
    2.9852    3.5692    0.0000 C   0  0  0  0  0  0  0  0  0  0  0  0
    2.0708    3.2751    0.0000 C   0  0  0  0  0  0  0  0  0  0  0  0
    2.6999    3.2550    0.0000 O   0  0  0  0  0  0  0  0  0  0  0  0
    1.6635    2.4931    0.0000 C   0  0  0  0  0  0  0  0  0  0  0  0
    0.8689    2.4737    0.0000 C   0  0  0  0  0  0  0  0  0  0  0  0
    0.4614    3.1980    0.0000 C   0  0  0  0  0  0  0  0  0  0  0  0
    0.8664    3.9152    0.0000 C   0  0  0  0  0  0  0  0  0  0  0  0
    0.4566    4.6289    0.0000 C   0  0  0  0  0  0  0  0  0  0  0  0
   -0.3721    4.6293    0.0000 C   0  0  0  0  0  0  0  0  0  0  0  0
   -0.7793    3.9172    0.0000 C   0  0  0  0  0  0  0  0  0  0  0  0
   -0.3687    3.2066    0.0000 C   0  0  0  0  0  0  0  0  0  0  0  0
   -0.8053    2.5045    0.0000 C   0  0  0  0  0  0  0  0  0  0  0  0
   -1.6169    2.3397    0.0000 C   0  0  0  0  0  0  0  0  0  0  0  0
   -2.0710    1.6442    0.0000 C   0  0  0  0  0  0  0  0  0  0  0  0
   -1.5813    0.9785    0.0000 O   0  0  0  0  0  0  0  0  0  0  0  0
   -2.8931    1.7298    0.0000 O   0  0  0  0  0  0  0  0  0  0  0  0
   -2.0346   -4.1628    0.0000 C   0  0  0  0  0  0  0  0  0  0  0  0
   -2.7012   -4.6364    0.0000 C   0  0  0  0  0  0  0  0  0  0  0  0
  1  2  1  0  0  0  0
  2  3  1  0  0  0  0
  3  4  1  0  0  0  0
  4  5  2  0  0  0  0
  5  6  1  0  0  0  0
  6  7  1  0  0  0  0
  7  8  1  0  0  0  0
  8  9  1  0  0  0  0
  9 10  1  0  0  0  0
 10 11  1  0  0  0  0
 11 12  1  0  0  0  0
 12 13  2  0  0  0  0
 12 14  1  0  0  0  0
 14 15  2  0  0  0  0
 15 16  1  0  0  0  0
 16 17  1  0  0  0  0
 17 18  2  0  0  0  0
 14 18  1  0  0  0  0
 17 19  1  0  0  0  0
 19 20  1  0  0  0  0
 20 21  1  0  0  0  0
 21 22  1  0  0  0  0
 22 23  1  0  0  0  0
 23 24  1  0  0  0  0
 20 24  1  0  0  0  0
 23 25  1  0  0  0  0
 19 25  1  0  0  0  0
 25 26  1  0  0  0  0
 26 27  1  0  0  0  0
 27 28  1  0  0  0  0
 28 29  2  0  0  0  0
 29 30  1  0  0  0  0
 30 31  2  0  0  0  0
 31 32  1  0  0  0  0
 27 32  2  0  0  0  0
 32 33  1  0  0  0  0
 33 34  1  0  0  0  0
 34 35  1  0  0  0  0
 35 36  2  0  0  0  0
 35 37  1  0  0  0  0
  6 38  2  0  0  0  0
 38 39  1  0  0  0  0
  3 39  2  0  0  0  0
M  END
>  <Name>
CHEMBL287068

>  <Target_Uniprot>
P21731

>  <CHEMBL Canonical SMILES>
CSc1ccc(CCCCNC(=O)c2coc(n2)C3C4CCC(O4)C3Cc5ccccc5CCC(=O)O)cc1

>  <PubMed ID>
8496908

$$$$

  Marvin  08031817322D          

 26 28  0  0  0  0            999 V2000
   -0.3972   -4.8170    0.0000 O   0  0  0  0  0  0  0  0  0  0  0  0
   -1.0250   -4.2802    0.0000 C   0  0  0  0  0  0  0  0  0  0  0  0
   -1.8480   -4.3521    0.0000 O   0  0  0  0  0  0  0  0  0  0  0  0
   -0.7586   -3.5010    0.0000 C   0  0  0  0  0  0  0  0  0  0  0  0
    0.0130   -3.2116    0.0000 C   0  0  0  0  0  0  0  0  0  0  0  0
    0.3575   -2.4595    0.0000 C   0  0  0  0  0  0  0  0  0  0  0  0
    1.1568   -2.2369    0.0000 C   0  0  0  0  0  0  0  0  0  0  0  0
    1.3922   -1.4497    0.0000 C   0  0  0  0  0  0  0  0  0  0  0  0
    0.8697   -0.8270    0.0000 C   0  0  0  0  0  0  0  0  0  0  0  0
    1.1133   -0.0388    0.0000 C   0  0  0  0  0  0  0  0  0  0  0  0
    1.9343    0.2930    0.0000 C   0  0  0  0  0  0  0  0  0  0  0  0
    2.5341    0.9791    0.0000 C   0  0  0  0  0  0  0  0  0  0  0  0
    2.0007    1.6874    0.0000 C   0  0  0  0  0  0  0  0  0  0  0  0
    1.1546    1.3247    0.0000 C   0  0  0  0  0  0  0  0  0  0  0  0
    1.7525    0.9986    0.0000 C   0  0  0  0  0  0  0  0  0  0  0  0
    0.6184    0.6194    0.0000 C   0  0  0  0  0  0  0  0  0  0  0  0
   -0.1845    0.6556    0.0000 N   0  0  0  0  0  0  0  0  0  0  0  0
   -0.6421    1.3296    0.0000 S   0  0  0  0  0  0  0  0  0  0  0  0
   -1.3507    0.8965    0.0000 O   0  0  0  0  0  0  0  0  0  0  0  0
    0.0651    1.7693    0.0000 O   0  0  0  0  0  0  0  0  0  0  0  0
   -1.0405    2.0537    0.0000 C   0  0  0  0  0  0  0  0  0  0  0  0
   -0.6319    2.7703    0.0000 C   0  0  0  0  0  0  0  0  0  0  0  0
   -1.0536    3.4891    0.0000 C   0  0  0  0  0  0  0  0  0  0  0  0
   -1.8784    3.4864    0.0000 C   0  0  0  0  0  0  0  0  0  0  0  0
   -2.2850    2.7714    0.0000 C   0  0  0  0  0  0  0  0  0  0  0  0
   -1.8666    2.0496    0.0000 C   0  0  0  0  0  0  0  0  0  0  0  0
  1  2  1  0  0  0  0
  2  3  2  0  0  0  0
  2  4  1  0  0  0  0
  4  5  1  0  0  0  0
  5  6  1  0  0  0  0
  6  7  1  0  0  0  0
  7  8  2  0  0  0  0
  8  9  1  0  0  0  0
  9 10  1  0  0  0  0
 10 11  1  0  0  0  0
 11 12  1  0  0  0  0
 12 13  1  0  0  0  0
 13 14  1  0  0  0  0
 14 15  1  0  0  0  0
 11 15  1  0  0  0  0
 14 16  1  0  0  0  0
 10 16  1  0  0  0  0
 16 17  1  0  0  0  0
 17 18  1  0  0  0  0
 18 19  2  0  0  0  0
 18 20  2  0  0  0  0
 18 21  1  0  0  0  0
 21 22  1  0  0  0  0
 22 23  2  0  0  0  0
 23 24  1  0  0  0  0
 24 25  2  0  0  0  0
 25 26  1  0  0  0  0
 21 26  2  0  0  0  0
M  END
>  <Name>
CHEMBL48597

>  <Target_Uniprot>
P21731

>  <CHEMBL Canonical SMILES>
OC(=O)CCC\C=C/CC1C2CCC(C2)C1NS(=O)(=O)c3ccccc3

$$$$

  Marvin  08031817322D          

 30 31  0  0  0  0            999 V2000
   -2.4768   -5.9400    0.0000 C   0  0  0  0  0  0  0  0  0  0  0  0
   -1.7624   -5.5275    0.0000 C   0  0  0  0  0  0  0  0  0  0  0  0
   -1.7624   -4.7025    0.0000 C   0  0  0  0  0  0  0  0  0  0  0  0
   -1.0479   -4.2900    0.0000 C   0  0  0  0  0  0  0  0  0  0  0  0
   -1.0479   -3.4650    0.0000 C   0  0  0  0  0  0  0  0  0  0  0  0
   -0.3334   -3.0525    0.0000 C   0  0  0  0  0  0  0  0  0  0  0  0
   -0.3334   -2.2275    0.0000 C   0  0  0  0  0  0  0  0  0  0  0  0
    0.3811   -1.8150    0.0000 N   0  0  0  0  0  0  0  0  0  0  0  0
    0.3811   -0.9900    0.0000 C   0  0  0  0  0  0  0  0  0  0  0  0
   -0.3334   -0.5775    0.0000 O   0  0  0  0  0  0  0  0  0  0  0  0
    1.0955   -0.5775    0.0000 N   0  0  0  0  0  0  0  0  0  0  0  0
    1.0955    0.2475    0.0000 S   0  0  0  0  0  0  0  0  0  0  0  0
    1.9205    0.2475    0.0000 O   0  0  0  0  0  0  0  0  0  0  0  0
    0.2705    0.2475    0.0000 O   0  0  0  0  0  0  0  0  0  0  0  0
    1.0955    1.0725    0.0000 C   0  0  0  0  0  0  0  0  0  0  0  0
    1.8100    1.4850    0.0000 C   0  0  0  0  0  0  0  0  0  0  0  0
    1.8100    2.3100    0.0000 C   0  0  0  0  0  0  0  0  0  0  0  0
    1.0955    2.7225    0.0000 C   0  0  0  0  0  0  0  0  0  0  0  0
    0.3811    2.3100    0.0000 C   0  0  0  0  0  0  0  0  0  0  0  0
    0.3811    1.4850    0.0000 C   0  0  0  0  0  0  0  0  0  0  0  0
   -0.3334    1.0725    0.0000 N   0  0  0  0  0  0  0  0  0  0  0  0
   -1.0479    1.4850    0.0000 C   0  0  0  0  0  0  0  0  0  0  0  0
   -1.0479    2.3100    0.0000 C   0  0  0  0  0  0  0  0  0  0  0  0
   -1.7624    2.7225    0.0000 C   0  0  0  0  0  0  0  0  0  0  0  0
   -2.4768    2.3100    0.0000 C   0  0  0  0  0  0  0  0  0  0  0  0
   -2.4768    1.4850    0.0000 C   0  0  0  0  0  0  0  0  0  0  0  0
   -1.7624    1.0725    0.0000 C   0  0  0  0  0  0  0  0  0  0  0  0
    2.5245    2.7225    0.0000 N   0  3  0  0  0  0  0  0  0  0  0  0
    2.5245    3.5475    0.0000 O   0  0  0  0  0  0  0  0  0  0  0  0
    3.2389    2.3100    0.0000 O   0  5  0  0  0  0  0  0  0  0  0  0
  1  2  1  0  0  0  0
  2  3  1  0  0  0  0
  3  4  1  0  0  0  0
  4  5  1  0  0  0  0
  5  6  1  0  0  0  0
  6  7  1  0  0  0  0
  7  8  1  0  0  0  0
  8  9  1  0  0  0  0
  9 10  2  0  0  0  0
  9 11  1  0  0  0  0
 11 12  1  0  0  0  0
 12 13  2  0  0  0  0
 12 14  2  0  0  0  0
 12 15  1  0  0  0  0
 15 16  1  0  0  0  0
 16 17  2  0  0  0  0
 17 18  1  0  0  0  0
 18 19  2  0  0  0  0
 19 20  1  0  0  0  0
 15 20  2  0  0  0  0
 20 21  1  0  0  0  0
 21 22  1  0  0  0  0
 22 23  1  0  0  0  0
 23 24  1  0  0  0  0
 24 25  1  0  0  0  0
 25 26  1  0  0  0  0
 26 27  1  0  0  0  0
 22 27  1  0  0  0  0
 17 28  1  0  0  0  0
 28 29  2  0  0  0  0
 28 30  1  0  0  0  0
M  CHG  2  28   1  30  -1
M  END
>  <Name>
CHEMBL211008

>  <Target_Uniprot>
P21731

>  <CHEMBL Canonical SMILES>
CCCCCCCNC(=O)NS(=O)(=O)c1cc(ccc1NC2CCCCC2)[N+](=O)[O-]

>  <PubMed ID>
16759113

$$$$

  Marvin  08031817322D          

 31 35  0  0  0  0            999 V2000
    2.2547    2.9482    0.0000 C   0  0  0  0  0  0  0  0  0  0  0  0
    1.5402    2.5357    0.0000 C   0  0  0  0  0  0  0  0  0  0  0  0
    0.8258    2.9482    0.0000 C   0  0  0  0  0  0  0  0  0  0  0  0
    0.1113    2.5357    0.0000 C   0  0  0  0  0  0  0  0  0  0  0  0
   -0.6733    2.7906    0.0000 N   0  0  0  0  0  0  0  0  0  0  0  0
   -1.1583    2.1232    0.0000 C   0  0  0  0  0  0  0  0  0  0  0  0
   -0.6733    1.4557    0.0000 N   0  0  0  0  0  0  0  0  0  0  0  0
   -0.9283    0.6711    0.0000 C   0  0  0  0  0  0  0  0  0  0  0  0
   -0.3762    0.0580    0.0000 C   0  0  0  0  0  0  0  0  0  0  0  0
   -0.6312   -0.7266    0.0000 C   0  0  0  0  0  0  0  0  0  0  0  0
   -1.4487   -0.8373    0.0000 C   0  0  0  0  0  0  0  0  0  0  0  0
   -1.8505   -0.1168    0.0000 C   0  0  0  0  0  0  0  0  0  0  0  0
   -2.6754   -0.1044    0.0000 C   0  0  0  0  0  0  0  0  0  0  0  0
   -3.0985   -0.8126    0.0000 C   0  0  0  0  0  0  0  0  0  0  0  0
   -2.6968   -1.5332    0.0000 C   0  0  0  0  0  0  0  0  0  0  0  0
   -1.8719   -1.5456    0.0000 C   0  0  0  0  0  0  0  0  0  0  0  0
   -1.5820   -2.3179    0.0000 C   0  0  0  0  0  0  0  0  0  0  0  0
   -0.7973   -2.5729    0.0000 O   0  0  0  0  0  0  0  0  0  0  0  0
   -0.1088   -2.1184    0.0000 C   0  0  0  0  0  0  0  0  0  0  0  0
    0.5658   -2.5933    0.0000 C   0  0  0  0  0  0  0  0  0  0  0  0
    1.3144   -2.2465    0.0000 C   0  0  0  0  0  0  0  0  0  0  0  0
    1.3883   -1.4248    0.0000 C   0  0  0  0  0  0  0  0  0  0  0  0
    0.7137   -0.9499    0.0000 C   0  0  0  0  0  0  0  0  0  0  0  0
   -0.0349   -1.2967    0.0000 C   0  0  0  0  0  0  0  0  0  0  0  0
    2.1369   -1.0780    0.0000 C   0  0  0  0  0  0  0  0  0  0  0  0
    2.2108   -0.2563    0.0000 O   0  0  0  0  0  0  0  0  0  0  0  0
    2.8115   -1.5529    0.0000 O   0  0  0  0  0  0  0  0  0  0  0  0
    0.1113    1.7107    0.0000 C   0  0  0  0  0  0  0  0  0  0  0  0
    0.8258    1.2982    0.0000 C   0  0  0  0  0  0  0  0  0  0  0  0
    1.5402    1.7107    0.0000 C   0  0  0  0  0  0  0  0  0  0  0  0
    2.2547    1.2982    0.0000 C   0  0  0  0  0  0  0  0  0  0  0  0
  1  2  1  0  0  0  0
  2  3  2  0  0  0  0
  3  4  1  0  0  0  0
  4  5  1  0  0  0  0
  5  6  2  0  0  0  0
  6  7  1  0  0  0  0
  7  8  1  0  0  0  0
  8  9  1  0  0  0  0
  9 10  2  0  0  0  0
 10 11  1  0  0  0  0
 11 12  1  0  0  0  0
 12 13  2  0  0  0  0
 13 14  1  0  0  0  0
 14 15  2  0  0  0  0
 15 16  1  0  0  0  0
 11 16  2  0  0  0  0
 16 17  1  0  0  0  0
 17 18  1  0  0  0  0
 18 19  1  0  0  0  0
 19 20  1  0  0  0  0
 20 21  2  0  0  0  0
 21 22  1  0  0  0  0
 22 23  2  0  0  0  0
 23 24  1  0  0  0  0
 10 24  1  0  0  0  0
 19 24  2  0  0  0  0
 22 25  1  0  0  0  0
 25 26  2  0  0  0  0
 25 27  1  0  0  0  0
  7 28  1  0  0  0  0
  4 28  2  0  0  0  0
 28 29  1  0  0  0  0
 29 30  2  0  0  0  0
  2 30  1  0  0  0  0
 30 31  1  0  0  0  0
M  END
>  <Name>
CHEMBL422964

>  <Target_Uniprot>
P21731

>  <CHEMBL Canonical SMILES>
Cc1cc2ncn(C\C=C\3/c4ccccc4COc5ccc(cc35)C(=O)O)c2cc1C

>  <PubMed ID>
1388208

$$$$

  Marvin  08031817322D          

 32 37  0  0  0  0            999 V2000
   -2.1186   -0.3227    0.0000 O   0  0  0  0  0  0  0  0  0  0  0  0
   -2.0447   -1.1444    0.0000 C   0  0  0  0  0  0  0  0  0  0  0  0
   -2.7193   -1.6192    0.0000 O   0  0  0  0  0  0  0  0  0  0  0  0
   -1.2961   -1.4912    0.0000 C   0  0  0  0  0  0  0  0  0  0  0  0
   -1.2222   -2.3128    0.0000 C   0  0  0  0  0  0  0  0  0  0  0  0
   -0.4736   -2.6596    0.0000 C   0  0  0  0  0  0  0  0  0  0  0  0
    0.2010   -2.1847    0.0000 C   0  0  0  0  0  0  0  0  0  0  0  0
    0.8895   -2.6392    0.0000 O   0  0  0  0  0  0  0  0  0  0  0  0
    1.6742   -2.3843    0.0000 C   0  0  0  0  0  0  0  0  0  0  0  0
    1.9640   -1.6119    0.0000 C   0  0  0  0  0  0  0  0  0  0  0  0
    2.7890   -1.5996    0.0000 C   0  0  0  0  0  0  0  0  0  0  0  0
    3.1907   -0.8790    0.0000 C   0  0  0  0  0  0  0  0  0  0  0  0
    2.7676   -0.1708    0.0000 C   0  0  0  0  0  0  0  0  0  0  0  0
    1.9427   -0.1831    0.0000 C   0  0  0  0  0  0  0  0  0  0  0  0
    1.5409   -0.9037    0.0000 C   0  0  0  0  0  0  0  0  0  0  0  0
    0.7234   -0.7929    0.0000 C   0  0  0  0  0  0  0  0  0  0  0  0
    0.4684   -0.0083    0.0000 C   0  0  0  0  0  0  0  0  0  0  0  0
    1.0205    0.6048    0.0000 C   0  0  0  0  0  0  0  0  0  0  0  0
    0.7655    1.3894    0.0000 N   0  0  0  0  0  0  0  0  0  0  0  0
    1.2504    2.0568    0.0000 C   0  0  0  0  0  0  0  0  0  0  0  0
    0.7655    2.7243    0.0000 N   0  0  0  0  0  0  0  0  0  0  0  0
   -0.0191    2.4693    0.0000 C   0  0  0  0  0  0  0  0  0  0  0  0
   -0.7336    2.8818    0.0000 C   0  0  0  0  0  0  0  0  0  0  0  0
   -1.4480    2.4693    0.0000 C   0  0  0  0  0  0  0  0  0  0  0  0
   -2.2327    2.7243    0.0000 O   0  0  0  0  0  0  0  0  0  0  0  0
   -2.7176    2.0568    0.0000 C   0  0  0  0  0  0  0  0  0  0  0  0
   -2.2327    1.3894    0.0000 O   0  0  0  0  0  0  0  0  0  0  0  0
   -1.4480    1.6443    0.0000 C   0  0  0  0  0  0  0  0  0  0  0  0
   -0.7336    1.2318    0.0000 C   0  0  0  0  0  0  0  0  0  0  0  0
   -0.0191    1.6443    0.0000 C   0  0  0  0  0  0  0  0  0  0  0  0
    0.1271   -1.3631    0.0000 C   0  0  0  0  0  0  0  0  0  0  0  0
   -0.6215   -1.0163    0.0000 C   0  0  0  0  0  0  0  0  0  0  0  0
  1  2  1  0  0  0  0
  2  3  2  0  0  0  0
  2  4  1  0  0  0  0
  4  5  1  0  0  0  0
  5  6  2  0  0  0  0
  6  7  1  0  0  0  0
  7  8  1  0  0  0  0
  8  9  1  0  0  0  0
  9 10  1  0  0  0  0
 10 11  1  0  0  0  0
 11 12  2  0  0  0  0
 12 13  1  0  0  0  0
 13 14  2  0  0  0  0
 14 15  1  0  0  0  0
 10 15  2  0  0  0  0
 15 16  1  0  0  0  0
 16 17  2  0  0  0  0
 17 18  1  0  0  0  0
 18 19  1  0  0  0  0
 19 20  1  0  0  0  0
 20 21  2  0  0  0  0
 21 22  1  0  0  0  0
 22 23  1  0  0  0  0
 23 24  2  0  0  0  0
 24 25  1  0  0  0  0
 25 26  1  0  0  0  0
 26 27  1  0  0  0  0
 27 28  1  0  0  0  0
 24 28  1  0  0  0  0
 28 29  2  0  0  0  0
 29 30  1  0  0  0  0
 19 30  1  0  0  0  0
 22 30  2  0  0  0  0
 16 31  1  0  0  0  0
  7 31  2  0  0  0  0
 31 32  1  0  0  0  0
  4 32  2  0  0  0  0
M  END
>  <Name>
CHEMBL115241

>  <Target_Uniprot>
P21731

>  <CHEMBL Canonical SMILES>
OC(=O)c1ccc2OCc3ccccc3\C(=C/Cn4cnc5cc6OCOc6cc45)\c2c1

>  <PubMed ID>
1388208

$$$$

  Marvin  08031817322D          

 29 30  0  0  0  0            999 V2000
   -1.7985   -5.1918    0.0000 C   0  0  0  0  0  0  0  0  0  0  0  0
   -1.0840   -4.7793    0.0000 C   0  0  0  0  0  0  0  0  0  0  0  0
   -1.0840   -3.9543    0.0000 C   0  0  0  0  0  0  0  0  0  0  0  0
   -0.3696   -3.5418    0.0000 C   0  0  0  0  0  0  0  0  0  0  0  0
   -0.3696   -2.7168    0.0000 C   0  0  0  0  0  0  0  0  0  0  0  0
    0.3449   -2.3043    0.0000 N   0  0  0  0  0  0  0  0  0  0  0  0
    0.3449   -1.4793    0.0000 C   0  0  0  0  0  0  0  0  0  0  0  0
   -0.3696   -1.0668    0.0000 O   0  0  0  0  0  0  0  0  0  0  0  0
    1.0594   -1.0668    0.0000 N   0  0  0  0  0  0  0  0  0  0  0  0
    1.0594   -0.2418    0.0000 S   0  0  0  0  0  0  0  0  0  0  0  0
    1.8844   -0.2418    0.0000 O   0  0  0  0  0  0  0  0  0  0  0  0
    0.2344   -0.2418    0.0000 O   0  0  0  0  0  0  0  0  0  0  0  0
    1.0594    0.5832    0.0000 C   0  0  0  0  0  0  0  0  0  0  0  0
    1.7739    0.9957    0.0000 C   0  0  0  0  0  0  0  0  0  0  0  0
    1.7739    1.8207    0.0000 C   0  0  0  0  0  0  0  0  0  0  0  0
    1.0594    2.2332    0.0000 C   0  0  0  0  0  0  0  0  0  0  0  0
    0.3449    1.8207    0.0000 C   0  0  0  0  0  0  0  0  0  0  0  0
    0.3449    0.9957    0.0000 C   0  0  0  0  0  0  0  0  0  0  0  0
   -0.3696    0.5832    0.0000 O   0  0  0  0  0  0  0  0  0  0  0  0
   -1.0840    0.9957    0.0000 C   0  0  0  0  0  0  0  0  0  0  0  0
   -1.0840    1.8207    0.0000 C   0  0  0  0  0  0  0  0  0  0  0  0
   -1.7985    2.2332    0.0000 C   0  0  0  0  0  0  0  0  0  0  0  0
   -2.5130    1.8207    0.0000 C   0  0  0  0  0  0  0  0  0  0  0  0
   -3.2274    2.2332    0.0000 C   0  0  0  0  0  0  0  0  0  0  0  0
   -2.5130    0.9957    0.0000 C   0  0  0  0  0  0  0  0  0  0  0  0
   -1.7985    0.5832    0.0000 C   0  0  0  0  0  0  0  0  0  0  0  0
    2.4883    2.2332    0.0000 N   0  3  0  0  0  0  0  0  0  0  0  0
    2.4883    3.0582    0.0000 O   0  0  0  0  0  0  0  0  0  0  0  0
    3.2028    1.8207    0.0000 O   0  5  0  0  0  0  0  0  0  0  0  0
  1  2  1  0  0  0  0
  2  3  1  0  0  0  0
  3  4  1  0  0  0  0
  4  5  1  0  0  0  0
  5  6  1  0  0  0  0
  6  7  1  0  0  0  0
  7  8  2  0  0  0  0
  7  9  1  0  0  0  0
  9 10  1  0  0  0  0
 10 11  2  0  0  0  0
 10 12  2  0  0  0  0
 10 13  1  0  0  0  0
 13 14  1  0  0  0  0
 14 15  2  0  0  0  0
 15 16  1  0  0  0  0
 16 17  2  0  0  0  0
 17 18  1  0  0  0  0
 13 18  2  0  0  0  0
 18 19  1  0  0  0  0
 19 20  1  0  0  0  0
 20 21  1  0  0  0  0
 21 22  2  0  0  0  0
 22 23  1  0  0  0  0
 23 24  1  0  0  0  0
 23 25  2  0  0  0  0
 25 26  1  0  0  0  0
 20 26  2  0  0  0  0
 15 27  1  0  0  0  0
 27 28  2  0  0  0  0
 27 29  1  0  0  0  0
M  CHG  2  27   1  29  -1
M  END
>  <Name>
CHEMBL274415

>  <Target_Uniprot>
P21731

>  <CHEMBL Canonical SMILES>
CCCCCNC(=O)NS(=O)(=O)c1cc(ccc1Oc2ccc(C)cc2)[N+](=O)[O-]

>  <PubMed ID>
16759113

$$$$

  Marvin  08031817322D          

 27 30  0  0  0  0            999 V2000
    2.8658   -1.4625    0.0000 C   0  0  0  0  0  0  0  0  0  0  0  0
    2.1513   -1.0500    0.0000 S   0  0  0  0  0  0  0  0  0  0  0  0
    2.1513   -0.2250    0.0000 C   0  0  0  0  0  0  0  0  0  0  0  0
    2.8658    0.1875    0.0000 C   0  0  0  0  0  0  0  0  0  0  0  0
    2.8658    1.0125    0.0000 C   0  0  0  0  0  0  0  0  0  0  0  0
    2.1513    1.4250    0.0000 C   0  0  0  0  0  0  0  0  0  0  0  0
    1.4368    1.0125    0.0000 C   0  0  0  0  0  0  0  0  0  0  0  0
    0.6522    1.2674    0.0000 C   0  0  0  0  0  0  0  0  0  0  0  0
    0.3167    2.0211    0.0000 C   0  0  0  0  0  0  0  0  0  0  0  0
   -0.5038    2.1073    0.0000 C   0  0  0  0  0  0  0  0  0  0  0  0
   -0.9887    1.4399    0.0000 C   0  0  0  0  0  0  0  0  0  0  0  0
   -0.6532    0.6862    0.0000 C   0  0  0  0  0  0  0  0  0  0  0  0
   -1.1381    0.0187    0.0000 C   0  0  0  0  0  0  0  0  0  0  0  0
   -1.9586    0.1050    0.0000 C   0  0  0  0  0  0  0  0  0  0  0  0
   -2.2941    0.8587    0.0000 O   0  0  0  0  0  0  0  0  0  0  0  0
   -2.4435   -0.5625    0.0000 O   0  0  0  0  0  0  0  0  0  0  0  0
    0.1673    0.6000    0.0000 C   0  0  0  0  0  0  0  0  0  0  0  0
    0.6522   -0.0675    0.0000 N   0  0  0  0  0  0  0  0  0  0  0  0
    0.3973   -0.8521    0.0000 C   0  0  0  0  0  0  0  0  0  0  0  0
   -0.4097   -1.0236    0.0000 C   0  0  0  0  0  0  0  0  0  0  0  0
   -0.9617   -0.4105    0.0000 C   0  0  0  0  0  0  0  0  0  0  0  0
   -1.7687   -0.5821    0.0000 C   0  0  0  0  0  0  0  0  0  0  0  0
   -2.0236   -1.3667    0.0000 C   0  0  0  0  0  0  0  0  0  0  0  0
   -2.8306   -1.5382    0.0000 Cl  0  0  0  0  0  0  0  0  0  0  0  0
   -1.4716   -1.9798    0.0000 C   0  0  0  0  0  0  0  0  0  0  0  0
   -0.6646   -1.8083    0.0000 C   0  0  0  0  0  0  0  0  0  0  0  0
    1.4368    0.1875    0.0000 C   0  0  0  0  0  0  0  0  0  0  0  0
  1  2  1  0  0  0  0
  2  3  1  0  0  0  0
  3  4  2  0  0  0  0
  4  5  1  0  0  0  0
  5  6  2  0  0  0  0
  6  7  1  0  0  0  0
  7  8  1  0  0  0  0
  8  9  1  0  0  0  0
  9 10  1  0  0  0  0
 10 11  1  0  0  0  0
 11 12  1  0  0  0  0
 12 13  1  0  0  0  0
 13 14  1  0  0  0  0
 14 15  2  0  0  0  0
 14 16  1  0  0  0  0
 12 17  1  0  0  0  0
  8 17  2  0  0  0  0
 17 18  1  0  0  0  0
 18 19  1  0  0  0  0
 19 20  1  0  0  0  0
 20 21  1  0  0  0  0
 21 22  2  0  0  0  0
 22 23  1  0  0  0  0
 23 24  1  0  0  0  0
 23 25  2  0  0  0  0
 25 26  1  0  0  0  0
 20 26  2  0  0  0  0
 18 27  1  0  0  0  0
  3 27  1  0  0  0  0
  7 27  2  0  0  0  0
M  END
>  <Name>
CHEMBL377072

>  <Target_Uniprot>
P21731

>  <CHEMBL Canonical SMILES>
CSc1cccc2c3CCCC(CC(=O)O)c3n(Cc4ccc(Cl)cc4)c12

>  <PubMed ID>
16529930

$$$$

  Marvin  08031817322D          

 34 36  0  0  0  0            999 V2000
   -5.4986   -3.4437    0.0000 O   0  0  0  0  0  0  0  0  0  0  0  0
   -6.1305   -2.9121    0.0000 C   0  0  0  0  0  0  0  0  0  0  0  0
   -6.9536   -2.9782    0.0000 O   0  0  0  0  0  0  0  0  0  0  0  0
   -5.8683   -2.1291    0.0000 C   0  0  0  0  0  0  0  0  0  0  0  0
   -5.0922   -1.8471    0.0000 C   0  0  0  0  0  0  0  0  0  0  0  0
   -4.7633   -1.0903    0.0000 C   0  0  0  0  0  0  0  0  0  0  0  0
   -3.9733   -0.8654    0.0000 C   0  0  0  0  0  0  0  0  0  0  0  0
   -3.6862   -0.1049    0.0000 C   0  0  0  0  0  0  0  0  0  0  0  0
   -2.8958    0.0747    0.0000 C   0  0  0  0  0  0  0  0  0  0  0  0
   -2.5898    0.8355    0.0000 C   0  0  0  0  0  0  0  0  0  0  0  0
   -1.8282    1.1420    0.0000 C   0  0  0  0  0  0  0  0  0  0  0  0
   -1.1695    0.6614    0.0000 C   0  0  0  0  0  0  0  0  0  0  0  0
   -0.4021    0.9097    0.0000 N   0  0  0  0  0  0  0  0  0  0  0  0
    0.2194    0.3880    0.0000 C   0  0  0  0  0  0  0  0  0  0  0  0
    0.1388   -0.4295    0.0000 O   0  0  0  0  0  0  0  0  0  0  0  0
    0.9511    0.7634    0.0000 C   0  0  0  0  0  0  0  0  0  0  0  0
    1.6818    0.3795    0.0000 N   0  0  0  0  0  0  0  0  0  0  0  0
    2.4086    0.7713    0.0000 C   0  0  0  0  0  0  0  0  0  0  0  0
    2.5085    1.5909    0.0000 O   0  0  0  0  0  0  0  0  0  0  0  0
    3.0285    0.2267    0.0000 C   0  0  0  0  0  0  0  0  0  0  0  0
    3.8088    0.4764    0.0000 C   0  0  0  0  0  0  0  0  0  0  0  0
    4.5030    0.0632    0.0000 C   0  0  0  0  0  0  0  0  0  0  0  0
    5.2622    0.3509    0.0000 C   0  0  0  0  0  0  0  0  0  0  0  0
    5.9513   -0.1278    0.0000 C   0  0  0  0  0  0  0  0  0  0  0  0
    5.8686   -0.9485    0.0000 C   0  0  0  0  0  0  0  0  0  0  0  0
    6.5416   -1.4402    0.0000 C   0  0  0  0  0  0  0  0  0  0  0  0
    7.2934   -1.1125    0.0000 C   0  0  0  0  0  0  0  0  0  0  0  0
    7.3813   -0.2977    0.0000 C   0  0  0  0  0  0  0  0  0  0  0  0
    6.7108    0.1973    0.0000 C   0  0  0  0  0  0  0  0  0  0  0  0
   -1.9341    2.0235    0.0000 C   0  0  0  0  0  0  0  0  0  0  0  0
   -2.4461    2.7971    0.0000 C   0  0  0  0  0  0  0  0  0  0  0  0
   -3.2690    2.4735    0.0000 C   0  0  0  0  0  0  0  0  0  0  0  0
   -3.1198    1.5526    0.0000 C   0  0  0  0  0  0  0  0  0  0  0  0
   -2.6368    2.0495    0.0000 O   0  0  0  0  0  0  0  0  0  0  0  0
  1  2  1  0  0  0  0
  2  3  2  0  0  0  0
  2  4  1  0  0  0  0
  4  5  1  0  0  0  0
  5  6  1  0  0  0  0
  6  7  1  0  0  0  0
  7  8  2  0  0  0  0
  8  9  1  0  0  0  0
  9 10  1  0  0  0  0
 10 11  1  0  0  0  0
 11 12  1  0  0  0  0
 12 13  1  0  0  0  0
 13 14  1  0  0  0  0
 14 15  2  0  0  0  0
 14 16  1  0  0  0  0
 16 17  1  0  0  0  0
 17 18  1  0  0  0  0
 18 19  2  0  0  0  0
 18 20  1  0  0  0  0
 20 21  1  0  0  0  0
 21 22  1  0  0  0  0
 22 23  1  0  0  0  0
 23 24  1  0  0  0  0
 24 25  1  0  0  0  0
 25 26  1  0  0  0  0
 26 27  1  0  0  0  0
 27 28  1  0  0  0  0
 28 29  1  0  0  0  0
 24 29  1  0  0  0  0
 11 30  1  0  0  0  0
 30 31  1  0  0  0  0
 31 32  1  0  0  0  0
 32 33  1  0  0  0  0
 10 33  1  0  0  0  0
 33 34  1  0  0  0  0
 30 34  1  0  0  0  0
M  END
>  <Name>
CHEMBL312732

>  <Target_Uniprot>
P21731

>  <CHEMBL Canonical SMILES>
OC(=O)CCC\C=C\CC1C(CNC(=O)CNC(=O)CCCCC2CCCCC2)C3CCC1O3

>  <PubMed ID>
2391688

$$$$

  Marvin  08031817322D          

 26 28  0  0  0  0            999 V2000
    1.3740   -3.9663    0.0000 O   0  0  0  0  0  0  0  0  0  0  0  0
    2.0885   -3.5538    0.0000 C   0  0  0  0  0  0  0  0  0  0  0  0
    2.8029   -3.9663    0.0000 O   0  0  0  0  0  0  0  0  0  0  0  0
    2.0885   -2.7288    0.0000 C   0  0  0  0  0  0  0  0  0  0  0  0
    1.3740   -2.3163    0.0000 C   0  0  0  0  0  0  0  0  0  0  0  0
    1.3740   -1.4913    0.0000 C   0  0  0  0  0  0  0  0  0  0  0  0
    2.0885   -1.0788    0.0000 C   0  0  0  0  0  0  0  0  0  0  0  0
    2.0885   -0.2538    0.0000 C   0  0  0  0  0  0  0  0  0  0  0  0
    1.3740    0.1587    0.0000 C   0  0  0  0  0  0  0  0  0  0  0  0
    0.6595   -0.2538    0.0000 C   0  0  0  0  0  0  0  0  0  0  0  0
   -0.0550    0.1587    0.0000 C   0  0  0  0  0  0  0  0  0  0  0  0
   -0.7694   -0.2538    0.0000 C   0  0  0  0  0  0  0  0  0  0  0  0
   -0.7694   -1.0788    0.0000 C   0  0  0  0  0  0  0  0  0  0  0  0
   -0.0550   -1.4913    0.0000 C   0  0  0  0  0  0  0  0  0  0  0  0
    0.6595   -1.0788    0.0000 C   0  0  0  0  0  0  0  0  0  0  0  0
   -1.4839    0.1587    0.0000 N   0  0  0  0  0  0  0  0  0  0  0  0
   -1.4839    0.9837    0.0000 S   0  0  0  0  0  0  0  0  0  0  0  0
   -2.3089    0.9837    0.0000 O   0  0  0  0  0  0  0  0  0  0  0  0
   -0.6589    0.9837    0.0000 O   0  0  0  0  0  0  0  0  0  0  0  0
   -1.4839    1.8087    0.0000 C   0  0  0  0  0  0  0  0  0  0  0  0
   -0.7694    2.2212    0.0000 C   0  0  0  0  0  0  0  0  0  0  0  0
   -0.7694    3.0462    0.0000 C   0  0  0  0  0  0  0  0  0  0  0  0
   -1.4839    3.4587    0.0000 C   0  0  0  0  0  0  0  0  0  0  0  0
   -1.4839    4.2837    0.0000 Cl  0  0  0  0  0  0  0  0  0  0  0  0
   -2.1984    3.0462    0.0000 C   0  0  0  0  0  0  0  0  0  0  0  0
   -2.1984    2.2212    0.0000 C   0  0  0  0  0  0  0  0  0  0  0  0
  1  2  1  0  0  0  0
  2  3  2  0  0  0  0
  2  4  1  0  0  0  0
  4  5  1  0  0  0  0
  5  6  1  0  0  0  0
  6  7  1  0  0  0  0
  7  8  2  0  0  0  0
  8  9  1  0  0  0  0
  9 10  2  0  0  0  0
 10 11  1  0  0  0  0
 11 12  1  0  0  0  0
 12 13  1  0  0  0  0
 13 14  1  0  0  0  0
 14 15  1  0  0  0  0
  6 15  2  0  0  0  0
 10 15  1  0  0  0  0
 12 16  1  0  0  0  0
 16 17  1  0  0  0  0
 17 18  2  0  0  0  0
 17 19  2  0  0  0  0
 17 20  1  0  0  0  0
 20 21  1  0  0  0  0
 21 22  2  0  0  0  0
 22 23  1  0  0  0  0
 23 24  1  0  0  0  0
 23 25  2  0  0  0  0
 25 26  1  0  0  0  0
 20 26  2  0  0  0  0
M  END
>  <Name>
CHEMBL29374

>  <Target_Uniprot>
P21731

>  <CHEMBL Canonical SMILES>
OC(=O)CCc1cccc2CC(CCc12)NS(=O)(=O)c3ccc(Cl)cc3

>  <PubMed ID>
25127105

$$$$

  Marvin  08031817322D          

 36 39  0  0  0  0            999 V2000
   -0.5853   -2.0578    0.0000 C   0  0  0  0  0  0  0  0  0  0  0  0
   -1.0818   -1.4282    0.0000 C   0  0  0  0  0  0  0  0  0  0  0  0
   -1.9409   -1.5148    0.0000 O   0  0  0  0  0  0  0  0  0  0  0  0
   -0.9827   -0.5835    0.0000 N   0  0  0  0  0  0  0  0  0  0  0  0
   -0.0920   -0.3956    0.0000 C   0  0  0  0  0  0  0  0  0  0  0  0
    0.5067   -0.9719    0.0000 C   0  0  0  0  0  0  0  0  0  0  0  0
    1.2917   -0.7797    0.0000 C   0  0  0  0  0  0  0  0  0  0  0  0
    1.4981    0.0199    0.0000 C   0  0  0  0  0  0  0  0  0  0  0  0
    0.9223    0.6115    0.0000 C   0  0  0  0  0  0  0  0  0  0  0  0
    0.1439    0.3991    0.0000 C   0  0  0  0  0  0  0  0  0  0  0  0
    1.0862    1.3974    0.0000 N   0  0  0  0  0  0  0  0  0  0  0  0
    1.8688    1.6451    0.0000 C   0  0  0  0  0  0  0  0  0  0  0  0
    2.5078    1.1179    0.0000 C   0  0  0  0  0  0  0  0  0  0  0  0
    1.8677    2.4634    0.0000 C   0  0  0  0  0  0  0  0  0  0  0  0
    1.0893    2.7189    0.0000 C   0  0  0  0  0  0  0  0  0  0  0  0
    0.5960    2.0571    0.0000 C   0  0  0  0  0  0  0  0  0  0  0  0
   -0.2688    2.0792    0.0000 C   0  0  0  0  0  0  0  0  0  0  0  0
   -0.6968    2.7815    0.0000 C   0  0  0  0  0  0  0  0  0  0  0  0
   -1.5250    2.7728    0.0000 C   0  0  0  0  0  0  0  0  0  0  0  0
   -1.9121    3.4780    0.0000 Br  0  0  0  0  0  0  0  0  0  0  0  0
   -1.9247    2.0618    0.0000 C   0  0  0  0  0  0  0  0  0  0  0  0
   -1.5105    1.3596    0.0000 C   0  0  0  0  0  0  0  0  0  0  0  0
   -0.6840    1.3772    0.0000 C   0  0  0  0  0  0  0  0  0  0  0  0
   -0.5666    0.6141    0.0000 O   0  0  0  0  0  0  0  0  0  0  0  0
   -0.8225   -0.1415    0.0000 C   0  0  0  0  0  0  0  0  0  0  0  0
   -0.6743   -0.9817    0.0000 C   0  0  0  0  0  0  0  0  0  0  0  0
   -1.4428   -1.3034    0.0000 C   0  0  0  0  0  0  0  0  0  0  0  0
   -1.5268   -2.1367    0.0000 C   0  0  0  0  0  0  0  0  0  0  0  0
   -0.8714   -2.6292    0.0000 C   0  0  0  0  0  0  0  0  0  0  0  0
   -0.6692   -3.4434    0.0000 F   0  0  0  0  0  0  0  0  0  0  0  0
   -0.1165   -2.2964    0.0000 C   0  0  0  0  0  0  0  0  0  0  0  0
   -0.0213   -1.4764    0.0000 C   0  0  0  0  0  0  0  0  0  0  0  0
    0.6917   -1.8476    0.0000 F   0  0  0  0  0  0  0  0  0  0  0  0
    1.7444   -1.4578    0.0000 C   0  0  0  0  0  0  0  0  0  0  0  0
    2.5400   -1.2404    0.0000 O   0  0  0  0  0  0  0  0  0  0  0  0
    1.5616   -2.2684    0.0000 O   0  0  0  0  0  0  0  0  0  0  0  0
  1  2  1  0  0  0  0
  2  3  2  0  0  0  0
  2  4  1  0  0  0  0
  4  5  1  0  0  0  0
  5  6  1  0  0  0  0
  6  7  2  0  0  0  0
  7  8  1  0  0  0  0
  8  9  2  0  0  0  0
  9 10  1  0  0  0  0
  5 10  2  0  0  0  0
  9 11  1  0  0  0  0
 11 12  1  0  0  0  0
 12 13  1  0  0  0  0
 12 14  2  0  0  0  0
 14 15  1  0  0  0  0
 15 16  2  0  0  0  0
 11 16  1  0  0  0  0
 16 17  1  0  0  0  0
 17 18  1  0  0  0  0
 18 19  2  0  0  0  0
 19 20  1  0  0  0  0
 19 21  1  0  0  0  0
 21 22  2  0  0  0  0
 22 23  1  0  0  0  0
 17 23  2  0  0  0  0
 23 24  1  0  0  0  0
 24 25  1  0  0  0  0
 25 26  1  0  0  0  0
 26 27  1  0  0  0  0
 27 28  2  0  0  0  0
 28 29  1  0  0  0  0
 29 30  1  0  0  0  0
 29 31  2  0  0  0  0
 31 32  1  0  0  0  0
 26 32  2  0  0  0  0
 32 33  1  0  0  0  0
  7 34  1  0  0  0  0
 34 35  2  0  0  0  0
 34 36  1  0  0  0  0
M  END
>  <Name>
CHEMBL427844

>  <Target_Uniprot>
P21731

>  <CHEMBL Canonical SMILES>
CC(=O)Nc1cc(cc(c1)n2c(C)ccc2c3cc(Br)ccc3OCc4ccc(F)cc4F)C(=O)O

>  <PubMed ID>
17098427

$$$$

  Marvin  08031817322D          

 25 28  0  0  0  0            999 V2000
   -2.1393   -0.6171    0.0000 O   0  0  0  0  0  0  0  0  0  0  0  0
   -1.4248   -1.0296    0.0000 C   0  0  0  0  0  0  0  0  0  0  0  0
   -1.4248   -1.8546    0.0000 O   0  0  0  0  0  0  0  0  0  0  0  0
   -0.7103   -0.6171    0.0000 C   0  0  0  0  0  0  0  0  0  0  0  0
   -0.7103    0.2079    0.0000 C   0  0  0  0  0  0  0  0  0  0  0  0
   -1.4248    0.6204    0.0000 C   0  0  0  0  0  0  0  0  0  0  0  0
   -1.4248    1.4454    0.0000 C   0  0  0  0  0  0  0  0  0  0  0  0
   -0.7103    1.8579    0.0000 C   0  0  0  0  0  0  0  0  0  0  0  0
    0.0041    1.4454    0.0000 C   0  0  0  0  0  0  0  0  0  0  0  0
    0.0041    0.6204    0.0000 C   0  0  0  0  0  0  0  0  0  0  0  0
    0.7888    0.3654    0.0000 N   0  0  0  0  0  0  0  0  0  0  0  0
    1.0437   -0.4192    0.0000 C   0  0  0  0  0  0  0  0  0  0  0  0
    0.4917   -1.0323    0.0000 C   0  0  0  0  0  0  0  0  0  0  0  0
   -0.3153   -0.8608    0.0000 C   0  0  0  0  0  0  0  0  0  0  0  0
   -0.8673   -1.4739    0.0000 C   0  0  0  0  0  0  0  0  0  0  0  0
   -0.6124   -2.2585    0.0000 C   0  0  0  0  0  0  0  0  0  0  0  0
   -1.1644   -2.8716    0.0000 Cl  0  0  0  0  0  0  0  0  0  0  0  0
    0.1946   -2.4300    0.0000 C   0  0  0  0  0  0  0  0  0  0  0  0
    0.7466   -1.8169    0.0000 C   0  0  0  0  0  0  0  0  0  0  0  0
    1.2737    1.0329    0.0000 C   0  0  0  0  0  0  0  0  0  0  0  0
    2.0942    1.1191    0.0000 C   0  0  0  0  0  0  0  0  0  0  0  0
    2.4297    1.8728    0.0000 C   0  0  0  0  0  0  0  0  0  0  0  0
    1.9448    2.5402    0.0000 C   0  0  0  0  0  0  0  0  0  0  0  0
    1.1243    2.4540    0.0000 C   0  0  0  0  0  0  0  0  0  0  0  0
    0.7888    1.7003    0.0000 C   0  0  0  0  0  0  0  0  0  0  0  0
  1  2  1  0  0  0  0
  2  3  2  0  0  0  0
  2  4  1  0  0  0  0
  4  5  1  0  0  0  0
  5  6  1  0  0  0  0
  6  7  1  0  0  0  0
  7  8  1  0  0  0  0
  8  9  1  0  0  0  0
  9 10  2  0  0  0  0
  5 10  1  0  0  0  0
 10 11  1  0  0  0  0
 11 12  1  0  0  0  0
 12 13  1  0  0  0  0
 13 14  1  0  0  0  0
 14 15  2  0  0  0  0
 15 16  1  0  0  0  0
 16 17  1  0  0  0  0
 16 18  2  0  0  0  0
 18 19  1  0  0  0  0
 13 19  2  0  0  0  0
 11 20  1  0  0  0  0
 20 21  1  0  0  0  0
 21 22  2  0  0  0  0
 22 23  1  0  0  0  0
 23 24  2  0  0  0  0
 24 25  1  0  0  0  0
  9 25  1  0  0  0  0
 20 25  2  0  0  0  0
M  END
>  <Name>
CHEMBL206631

>  <Target_Uniprot>
P21731

>  <CHEMBL Canonical SMILES>
OC(=O)CC1CCCc2c1n(Cc3ccc(Cl)cc3)c4ccccc24

>  <PubMed ID>
16529930

$$$$

  Marvin  08031817322D          

 26 29  0  0  0  0            999 V2000
   -2.2385   -0.6345    0.0000 O   0  0  0  0  0  0  0  0  0  0  0  0
   -1.5240   -1.0470    0.0000 C   0  0  0  0  0  0  0  0  0  0  0  0
   -1.5240   -1.8720    0.0000 O   0  0  0  0  0  0  0  0  0  0  0  0
   -0.8095   -0.6345    0.0000 C   0  0  0  0  0  0  0  0  0  0  0  0
   -0.8095    0.1905    0.0000 C   0  0  0  0  0  0  0  0  0  0  0  0
   -1.5240    0.6030    0.0000 C   0  0  0  0  0  0  0  0  0  0  0  0
   -1.5240    1.4280    0.0000 C   0  0  0  0  0  0  0  0  0  0  0  0
   -0.8095    1.8405    0.0000 C   0  0  0  0  0  0  0  0  0  0  0  0
   -0.0951    1.4280    0.0000 C   0  0  0  0  0  0  0  0  0  0  0  0
   -0.0951    0.6030    0.0000 C   0  0  0  0  0  0  0  0  0  0  0  0
    0.6896    0.3480    0.0000 N   0  0  0  0  0  0  0  0  0  0  0  0
    0.9445   -0.4366    0.0000 C   0  0  0  0  0  0  0  0  0  0  0  0
    0.3925   -1.0497    0.0000 C   0  0  0  0  0  0  0  0  0  0  0  0
   -0.4145   -0.8781    0.0000 C   0  0  0  0  0  0  0  0  0  0  0  0
   -0.9665   -1.4912    0.0000 C   0  0  0  0  0  0  0  0  0  0  0  0
   -0.7116   -2.2759    0.0000 C   0  0  0  0  0  0  0  0  0  0  0  0
   -1.2636   -2.8890    0.0000 Cl  0  0  0  0  0  0  0  0  0  0  0  0
    0.0954   -2.4474    0.0000 C   0  0  0  0  0  0  0  0  0  0  0  0
    0.6474   -1.8343    0.0000 C   0  0  0  0  0  0  0  0  0  0  0  0
    1.1745    1.0155    0.0000 C   0  0  0  0  0  0  0  0  0  0  0  0
    1.9950    1.1017    0.0000 C   0  0  0  0  0  0  0  0  0  0  0  0
    2.4799    0.4343    0.0000 Br  0  0  0  0  0  0  0  0  0  0  0  0
    2.3305    1.8554    0.0000 C   0  0  0  0  0  0  0  0  0  0  0  0
    1.8456    2.5228    0.0000 C   0  0  0  0  0  0  0  0  0  0  0  0
    1.0251    2.4366    0.0000 C   0  0  0  0  0  0  0  0  0  0  0  0
    0.6896    1.6829    0.0000 C   0  0  0  0  0  0  0  0  0  0  0  0
  1  2  1  0  0  0  0
  2  3  2  0  0  0  0
  2  4  1  0  0  0  0
  4  5  1  0  0  0  0
  5  6  1  0  0  0  0
  6  7  1  0  0  0  0
  7  8  1  0  0  0  0
  8  9  1  0  0  0  0
  9 10  2  0  0  0  0
  5 10  1  0  0  0  0
 10 11  1  0  0  0  0
 11 12  1  0  0  0  0
 12 13  1  0  0  0  0
 13 14  1  0  0  0  0
 14 15  2  0  0  0  0
 15 16  1  0  0  0  0
 16 17  1  0  0  0  0
 16 18  2  0  0  0  0
 18 19  1  0  0  0  0
 13 19  2  0  0  0  0
 11 20  1  0  0  0  0
 20 21  1  0  0  0  0
 21 22  1  0  0  0  0
 21 23  2  0  0  0  0
 23 24  1  0  0  0  0
 24 25  2  0  0  0  0
 25 26  1  0  0  0  0
  9 26  1  0  0  0  0
 20 26  2  0  0  0  0
M  END
>  <Name>
CHEMBL378125

>  <Target_Uniprot>
P21731

>  <CHEMBL Canonical SMILES>
OC(=O)CC1CCCc2c1n(Cc3ccc(Cl)cc3)c4c(Br)cccc24

>  <PubMed ID>
16529930

$$$$

  Marvin  08031817322D          

 33 37  0  0  0  0            999 V2000
   -2.0525   -0.4975    0.0000 O   0  0  0  0  0  0  0  0  0  0  0  0
   -1.9786   -1.3192    0.0000 C   0  0  0  0  0  0  0  0  0  0  0  0
   -2.6532   -1.7941    0.0000 O   0  0  0  0  0  0  0  0  0  0  0  0
   -1.2300   -1.6660    0.0000 C   0  0  0  0  0  0  0  0  0  0  0  0
   -1.1561   -2.4877    0.0000 C   0  0  0  0  0  0  0  0  0  0  0  0
   -0.4075   -2.8345    0.0000 C   0  0  0  0  0  0  0  0  0  0  0  0
    0.2671   -2.3596    0.0000 C   0  0  0  0  0  0  0  0  0  0  0  0
    0.9556   -2.8141    0.0000 O   0  0  0  0  0  0  0  0  0  0  0  0
    1.7403   -2.5591    0.0000 C   0  0  0  0  0  0  0  0  0  0  0  0
    2.0302   -1.7867    0.0000 C   0  0  0  0  0  0  0  0  0  0  0  0
    2.8551   -1.7744    0.0000 C   0  0  0  0  0  0  0  0  0  0  0  0
    3.2568   -1.0538    0.0000 C   0  0  0  0  0  0  0  0  0  0  0  0
    2.8337   -0.3456    0.0000 C   0  0  0  0  0  0  0  0  0  0  0  0
    2.0088   -0.3579    0.0000 C   0  0  0  0  0  0  0  0  0  0  0  0
    1.6070   -1.0785    0.0000 C   0  0  0  0  0  0  0  0  0  0  0  0
    0.7895   -0.9678    0.0000 C   0  0  0  0  0  0  0  0  0  0  0  0
    0.5345   -0.1831    0.0000 C   0  0  0  0  0  0  0  0  0  0  0  0
    1.0866    0.4299    0.0000 C   0  0  0  0  0  0  0  0  0  0  0  0
    0.8316    1.2146    0.0000 N   0  0  0  0  0  0  0  0  0  0  0  0
    1.3166    1.8820    0.0000 C   0  0  0  0  0  0  0  0  0  0  0  0
    0.8316    2.5494    0.0000 N   0  0  0  0  0  0  0  0  0  0  0  0
    0.0470    2.2945    0.0000 C   0  0  0  0  0  0  0  0  0  0  0  0
   -0.6675    2.7070    0.0000 C   0  0  0  0  0  0  0  0  0  0  0  0
   -1.3819    2.2945    0.0000 C   0  0  0  0  0  0  0  0  0  0  0  0
   -1.3819    1.4695    0.0000 C   0  0  0  0  0  0  0  0  0  0  0  0
   -0.6675    1.0570    0.0000 C   0  0  0  0  0  0  0  0  0  0  0  0
    0.0470    1.4695    0.0000 C   0  0  0  0  0  0  0  0  0  0  0  0
   -2.0964    2.7070    0.0000 C   0  0  0  0  0  0  0  0  0  0  0  0
   -2.5089    1.9925    0.0000 F   0  0  0  0  0  0  0  0  0  0  0  0
   -1.6839    3.4215    0.0000 F   0  0  0  0  0  0  0  0  0  0  0  0
   -2.8109    3.1195    0.0000 F   0  0  0  0  0  0  0  0  0  0  0  0
    0.1932   -1.5379    0.0000 C   0  0  0  0  0  0  0  0  0  0  0  0
   -0.5554   -1.1911    0.0000 C   0  0  0  0  0  0  0  0  0  0  0  0
  1  2  1  0  0  0  0
  2  3  2  0  0  0  0
  2  4  1  0  0  0  0
  4  5  1  0  0  0  0
  5  6  2  0  0  0  0
  6  7  1  0  0  0  0
  7  8  1  0  0  0  0
  8  9  1  0  0  0  0
  9 10  1  0  0  0  0
 10 11  1  0  0  0  0
 11 12  2  0  0  0  0
 12 13  1  0  0  0  0
 13 14  2  0  0  0  0
 14 15  1  0  0  0  0
 10 15  2  0  0  0  0
 15 16  1  0  0  0  0
 16 17  2  0  0  0  0
 17 18  1  0  0  0  0
 18 19  1  0  0  0  0
 19 20  1  0  0  0  0
 20 21  2  0  0  0  0
 21 22  1  0  0  0  0
 22 23  1  0  0  0  0
 23 24  2  0  0  0  0
 24 25  1  0  0  0  0
 25 26  2  0  0  0  0
 26 27  1  0  0  0  0
 19 27  1  0  0  0  0
 22 27  2  0  0  0  0
 24 28  1  0  0  0  0
 28 29  1  0  0  0  0
 28 30  1  0  0  0  0
 28 31  1  0  0  0  0
 16 32  1  0  0  0  0
  7 32  2  0  0  0  0
 32 33  1  0  0  0  0
  4 33  2  0  0  0  0
M  END
>  <Name>
CHEMBL333159

>  <Target_Uniprot>
P21731

>  <CHEMBL Canonical SMILES>
OC(=O)c1ccc2OCc3ccccc3\C(=C/Cn4cnc5cc(ccc45)C(F)(F)F)\c2c1

>  <PubMed ID>
1388208

$$$$

  Marvin  08031817322D          

 31 33  0  0  0  0            999 V2000
    4.2407   -2.3153    0.0000 C   0  0  0  0  0  0  0  0  0  0  0  0
    3.5263   -1.9028    0.0000 C   0  0  0  0  0  0  0  0  0  0  0  0
    3.5263   -1.0778    0.0000 C   0  0  0  0  0  0  0  0  0  0  0  0
    2.8118   -0.6653    0.0000 C   0  0  0  0  0  0  0  0  0  0  0  0
    2.0973   -1.0778    0.0000 C   0  0  0  0  0  0  0  0  0  0  0  0
    1.3828   -0.6653    0.0000 N   0  0  0  0  0  0  0  0  0  0  0  0
    1.3828    0.1597    0.0000 C   0  0  0  0  0  0  0  0  0  0  0  0
    2.0973    0.5722    0.0000 C   0  0  0  0  0  0  0  0  0  0  0  0
    2.0973    1.3972    0.0000 C   0  0  0  0  0  0  0  0  0  0  0  0
    1.3828    1.8097    0.0000 C   0  0  0  0  0  0  0  0  0  0  0  0
    0.6684    1.3972    0.0000 C   0  0  0  0  0  0  0  0  0  0  0  0
    0.6684    0.5722    0.0000 C   0  0  0  0  0  0  0  0  0  0  0  0
   -0.0461    0.1597    0.0000 S   0  0  0  0  0  0  0  0  0  0  0  0
    0.3664   -0.5548    0.0000 O   0  0  0  0  0  0  0  0  0  0  0  0
   -0.4586    0.8741    0.0000 O   0  0  0  0  0  0  0  0  0  0  0  0
   -0.7606   -0.2528    0.0000 N   0  0  0  0  0  0  0  0  0  0  0  0
   -1.4750    0.1597    0.0000 C   0  0  0  0  0  0  0  0  0  0  0  0
   -1.4750    0.9847    0.0000 O   0  0  0  0  0  0  0  0  0  0  0  0
   -2.1895   -0.2528    0.0000 N   0  0  0  0  0  0  0  0  0  0  0  0
   -2.9040    0.1597    0.0000 C   0  0  0  0  0  0  0  0  0  0  0  0
   -3.6184   -0.2528    0.0000 C   0  0  0  0  0  0  0  0  0  0  0  0
   -4.3329    0.1597    0.0000 C   0  0  0  0  0  0  0  0  0  0  0  0
   -5.0474   -0.2528    0.0000 C   0  0  0  0  0  0  0  0  0  0  0  0
   -5.0474   -1.0778    0.0000 C   0  0  0  0  0  0  0  0  0  0  0  0
   -4.3329   -1.4903    0.0000 C   0  0  0  0  0  0  0  0  0  0  0  0
   -3.6184   -1.0778    0.0000 C   0  0  0  0  0  0  0  0  0  0  0  0
    1.3828    2.6347    0.0000 N   0  3  0  0  0  0  0  0  0  0  0  0
    0.6684    3.0472    0.0000 O   0  0  0  0  0  0  0  0  0  0  0  0
    2.0973    3.0472    0.0000 O   0  5  0  0  0  0  0  0  0  0  0  0
    2.0973   -1.9028    0.0000 C   0  0  0  0  0  0  0  0  0  0  0  0
    2.8118   -2.3153    0.0000 C   0  0  0  0  0  0  0  0  0  0  0  0
  1  2  1  0  0  0  0
  2  3  1  0  0  0  0
  3  4  2  0  0  0  0
  4  5  1  0  0  0  0
  5  6  1  0  0  0  0
  6  7  1  0  0  0  0
  7  8  1  0  0  0  0
  8  9  2  0  0  0  0
  9 10  1  0  0  0  0
 10 11  2  0  0  0  0
 11 12  1  0  0  0  0
  7 12  2  0  0  0  0
 12 13  1  0  0  0  0
 13 14  2  0  0  0  0
 13 15  2  0  0  0  0
 13 16  1  0  0  0  0
 16 17  1  0  0  0  0
 17 18  2  0  0  0  0
 17 19  1  0  0  0  0
 19 20  1  0  0  0  0
 20 21  1  0  0  0  0
 21 22  1  0  0  0  0
 22 23  2  0  0  0  0
 23 24  1  0  0  0  0
 24 25  2  0  0  0  0
 25 26  1  0  0  0  0
 21 26  2  0  0  0  0
 10 27  1  0  0  0  0
 27 28  2  0  0  0  0
 27 29  1  0  0  0  0
  5 30  2  0  0  0  0
 30 31  1  0  0  0  0
  2 31  2  0  0  0  0
M  CHG  2  27   1  29  -1
M  END
>  <Name>
CHEMBL209245

>  <Target_Uniprot>
P21731

>  <CHEMBL Canonical SMILES>
Cc1ccc(Nc2ccc(cc2S(=O)(=O)NC(=O)NCc3ccccc3)[N+](=O)[O-])cc1

>  <PubMed ID>
16759113

$$$$

  Marvin  08031817322D          

 30 31  0  0  0  0            999 V2000
   -1.6909   -5.2112    0.0000 C   0  0  0  0  0  0  0  0  0  0  0  0
   -0.9764   -4.7987    0.0000 C   0  0  0  0  0  0  0  0  0  0  0  0
   -0.9764   -3.9737    0.0000 C   0  0  0  0  0  0  0  0  0  0  0  0
   -0.2620   -3.5612    0.0000 C   0  0  0  0  0  0  0  0  0  0  0  0
   -0.2620   -2.7362    0.0000 C   0  0  0  0  0  0  0  0  0  0  0  0
    0.4525   -2.3238    0.0000 N   0  0  0  0  0  0  0  0  0  0  0  0
    0.4525   -1.4988    0.0000 C   0  0  0  0  0  0  0  0  0  0  0  0
   -0.2620   -1.0862    0.0000 O   0  0  0  0  0  0  0  0  0  0  0  0
    1.1670   -1.0863    0.0000 N   0  0  0  0  0  0  0  0  0  0  0  0
    1.1670   -0.2613    0.0000 S   0  0  0  0  0  0  0  0  0  0  0  0
    1.9920   -0.2613    0.0000 O   0  0  0  0  0  0  0  0  0  0  0  0
    0.3420   -0.2613    0.0000 O   0  0  0  0  0  0  0  0  0  0  0  0
    1.1670    0.5637    0.0000 C   0  0  0  0  0  0  0  0  0  0  0  0
    1.8814    0.9762    0.0000 C   0  0  0  0  0  0  0  0  0  0  0  0
    1.8814    1.8012    0.0000 C   0  0  0  0  0  0  0  0  0  0  0  0
    1.1670    2.2137    0.0000 C   0  0  0  0  0  0  0  0  0  0  0  0
    0.4525    1.8012    0.0000 C   0  0  0  0  0  0  0  0  0  0  0  0
    0.4525    0.9762    0.0000 C   0  0  0  0  0  0  0  0  0  0  0  0
   -0.2620    0.5637    0.0000 N   0  0  0  0  0  0  0  0  0  0  0  0
   -0.9764    0.9762    0.0000 C   0  0  0  0  0  0  0  0  0  0  0  0
   -0.9764    1.8012    0.0000 C   0  0  0  0  0  0  0  0  0  0  0  0
   -1.6909    2.2138    0.0000 C   0  0  0  0  0  0  0  0  0  0  0  0
   -2.4054    1.8013    0.0000 C   0  0  0  0  0  0  0  0  0  0  0  0
   -3.1199    2.2138    0.0000 Br  0  0  0  0  0  0  0  0  0  0  0  0
   -2.4054    0.9763    0.0000 C   0  0  0  0  0  0  0  0  0  0  0  0
   -3.1199    0.5638    0.0000 C   0  0  0  0  0  0  0  0  0  0  0  0
   -1.6909    0.5638    0.0000 C   0  0  0  0  0  0  0  0  0  0  0  0
    2.5959    2.2137    0.0000 N   0  3  0  0  0  0  0  0  0  0  0  0
    2.5959    3.0387    0.0000 O   0  0  0  0  0  0  0  0  0  0  0  0
    3.3104    1.8012    0.0000 O   0  5  0  0  0  0  0  0  0  0  0  0
  1  2  1  0  0  0  0
  2  3  1  0  0  0  0
  3  4  1  0  0  0  0
  4  5  1  0  0  0  0
  5  6  1  0  0  0  0
  6  7  1  0  0  0  0
  7  8  2  0  0  0  0
  7  9  1  0  0  0  0
  9 10  1  0  0  0  0
 10 11  2  0  0  0  0
 10 12  2  0  0  0  0
 10 13  1  0  0  0  0
 13 14  1  0  0  0  0
 14 15  2  0  0  0  0
 15 16  1  0  0  0  0
 16 17  2  0  0  0  0
 17 18  1  0  0  0  0
 13 18  2  0  0  0  0
 18 19  1  0  0  0  0
 19 20  1  0  0  0  0
 20 21  1  0  0  0  0
 21 22  2  0  0  0  0
 22 23  1  0  0  0  0
 23 24  1  0  0  0  0
 23 25  2  0  0  0  0
 25 26  1  0  0  0  0
 25 27  1  0  0  0  0
 20 27  2  0  0  0  0
 15 28  1  0  0  0  0
 28 29  2  0  0  0  0
 28 30  1  0  0  0  0
M  CHG  2  28   1  30  -1
M  END
>  <Name>
CHEMBL209134

>  <Target_Uniprot>
P21731

>  <CHEMBL Canonical SMILES>
CCCCCNC(=O)NS(=O)(=O)c1cc(ccc1Nc2ccc(Br)c(C)c2)[N+](=O)[O-]

>  <PubMed ID>
16759113

$$$$

  Marvin  08031817322D          

 28 29  0  0  0  0            999 V2000
    3.6489   -2.4897    0.0000 C   0  0  0  0  0  0  0  0  0  0  0  0
    2.9344   -2.0772    0.0000 C   0  0  0  0  0  0  0  0  0  0  0  0
    2.9344   -1.2522    0.0000 C   0  0  0  0  0  0  0  0  0  0  0  0
    2.2200   -0.8397    0.0000 C   0  0  0  0  0  0  0  0  0  0  0  0
    1.5055   -1.2522    0.0000 C   0  0  0  0  0  0  0  0  0  0  0  0
    0.7910   -0.8397    0.0000 O   0  0  0  0  0  0  0  0  0  0  0  0
    0.7910   -0.0147    0.0000 C   0  0  0  0  0  0  0  0  0  0  0  0
    1.5055    0.3978    0.0000 C   0  0  0  0  0  0  0  0  0  0  0  0
    1.5055    1.2228    0.0000 C   0  0  0  0  0  0  0  0  0  0  0  0
    0.7910    1.6353    0.0000 C   0  0  0  0  0  0  0  0  0  0  0  0
    0.0766    1.2228    0.0000 C   0  0  0  0  0  0  0  0  0  0  0  0
    0.0766    0.3978    0.0000 C   0  0  0  0  0  0  0  0  0  0  0  0
   -0.6379   -0.0147    0.0000 S   0  0  0  0  0  0  0  0  0  0  0  0
   -0.2254   -0.7292    0.0000 O   0  0  0  0  0  0  0  0  0  0  0  0
   -1.0504    0.6997    0.0000 O   0  0  0  0  0  0  0  0  0  0  0  0
   -1.3524   -0.4272    0.0000 N   0  0  0  0  0  0  0  0  0  0  0  0
   -2.0669   -0.0147    0.0000 C   0  0  0  0  0  0  0  0  0  0  0  0
   -2.0669    0.8103    0.0000 O   0  0  0  0  0  0  0  0  0  0  0  0
   -2.7813   -0.4272    0.0000 N   0  0  0  0  0  0  0  0  0  0  0  0
   -3.4958   -0.0147    0.0000 C   0  0  0  0  0  0  0  0  0  0  0  0
   -3.9083   -0.7292    0.0000 C   0  0  0  0  0  0  0  0  0  0  0  0
   -3.0833    0.6997    0.0000 C   0  0  0  0  0  0  0  0  0  0  0  0
   -4.2103    0.3978    0.0000 C   0  0  0  0  0  0  0  0  0  0  0  0
    0.7910    2.4603    0.0000 N   0  3  0  0  0  0  0  0  0  0  0  0
    0.0766    2.8728    0.0000 O   0  0  0  0  0  0  0  0  0  0  0  0
    1.5055    2.8728    0.0000 O   0  5  0  0  0  0  0  0  0  0  0  0
    1.5055   -2.0772    0.0000 C   0  0  0  0  0  0  0  0  0  0  0  0
    2.2200   -2.4897    0.0000 C   0  0  0  0  0  0  0  0  0  0  0  0
  1  2  1  0  0  0  0
  2  3  1  0  0  0  0
  3  4  2  0  0  0  0
  4  5  1  0  0  0  0
  5  6  1  0  0  0  0
  6  7  1  0  0  0  0
  7  8  1  0  0  0  0
  8  9  2  0  0  0  0
  9 10  1  0  0  0  0
 10 11  2  0  0  0  0
 11 12  1  0  0  0  0
  7 12  2  0  0  0  0
 12 13  1  0  0  0  0
 13 14  2  0  0  0  0
 13 15  2  0  0  0  0
 13 16  1  0  0  0  0
 16 17  1  0  0  0  0
 17 18  2  0  0  0  0
 17 19  1  0  0  0  0
 19 20  1  0  0  0  0
 20 21  1  0  0  0  0
 20 22  1  0  0  0  0
 20 23  1  0  0  0  0
 10 24  1  0  0  0  0
 24 25  2  0  0  0  0
 24 26  1  0  0  0  0
  5 27  2  0  0  0  0
 27 28  1  0  0  0  0
  2 28  2  0  0  0  0
M  CHG  2  24   1  26  -1
M  END
>  <Name>
CHEMBL209035

>  <Target_Uniprot>
P21731

>  <CHEMBL Canonical SMILES>
Cc1ccc(Oc2ccc(cc2S(=O)(=O)NC(=O)NC(C)(C)C)[N+](=O)[O-])cc1

>  <PubMed ID>
16759113

$$$$

  Marvin  08031817322D          

 32 36  0  0  0  0            999 V2000
   -2.1181   -0.4129    0.0000 O   0  0  0  0  0  0  0  0  0  0  0  0
   -2.0441   -1.2346    0.0000 C   0  0  0  0  0  0  0  0  0  0  0  0
   -2.7187   -1.7095    0.0000 O   0  0  0  0  0  0  0  0  0  0  0  0
   -1.2955   -1.5814    0.0000 C   0  0  0  0  0  0  0  0  0  0  0  0
   -1.2216   -2.4031    0.0000 C   0  0  0  0  0  0  0  0  0  0  0  0
   -0.4730   -2.7499    0.0000 C   0  0  0  0  0  0  0  0  0  0  0  0
    0.2016   -2.2750    0.0000 C   0  0  0  0  0  0  0  0  0  0  0  0
    0.8901   -2.7295    0.0000 O   0  0  0  0  0  0  0  0  0  0  0  0
    1.6748   -2.4745    0.0000 C   0  0  0  0  0  0  0  0  0  0  0  0
    1.9646   -1.7021    0.0000 C   0  0  0  0  0  0  0  0  0  0  0  0
    2.7895   -1.6898    0.0000 C   0  0  0  0  0  0  0  0  0  0  0  0
    3.1913   -0.9692    0.0000 C   0  0  0  0  0  0  0  0  0  0  0  0
    2.7682   -0.2610    0.0000 C   0  0  0  0  0  0  0  0  0  0  0  0
    1.9433   -0.2734    0.0000 C   0  0  0  0  0  0  0  0  0  0  0  0
    1.5415   -0.9939    0.0000 C   0  0  0  0  0  0  0  0  0  0  0  0
    0.7240   -0.8832    0.0000 C   0  0  0  0  0  0  0  0  0  0  0  0
    0.4690   -0.0986    0.0000 C   0  0  0  0  0  0  0  0  0  0  0  0
    1.0211    0.5145    0.0000 C   0  0  0  0  0  0  0  0  0  0  0  0
    0.7661    1.2992    0.0000 N   0  0  0  0  0  0  0  0  0  0  0  0
    1.2510    1.9666    0.0000 C   0  0  0  0  0  0  0  0  0  0  0  0
    0.7661    2.6340    0.0000 N   0  0  0  0  0  0  0  0  0  0  0  0
   -0.0185    2.3791    0.0000 C   0  0  0  0  0  0  0  0  0  0  0  0
   -0.7330    2.7916    0.0000 C   0  0  0  0  0  0  0  0  0  0  0  0
   -1.4474    2.3791    0.0000 C   0  0  0  0  0  0  0  0  0  0  0  0
   -1.4474    1.5541    0.0000 C   0  0  0  0  0  0  0  0  0  0  0  0
   -0.7330    1.1416    0.0000 C   0  0  0  0  0  0  0  0  0  0  0  0
   -0.0185    1.5541    0.0000 C   0  0  0  0  0  0  0  0  0  0  0  0
   -2.1619    2.7916    0.0000 N   0  3  0  0  0  0  0  0  0  0  0  0
   -2.8764    2.3791    0.0000 O   0  0  0  0  0  0  0  0  0  0  0  0
   -2.1619    3.6166    0.0000 O   0  5  0  0  0  0  0  0  0  0  0  0
    0.1277   -1.4533    0.0000 C   0  0  0  0  0  0  0  0  0  0  0  0
   -0.6209   -1.1065    0.0000 C   0  0  0  0  0  0  0  0  0  0  0  0
  1  2  1  0  0  0  0
  2  3  2  0  0  0  0
  2  4  1  0  0  0  0
  4  5  1  0  0  0  0
  5  6  2  0  0  0  0
  6  7  1  0  0  0  0
  7  8  1  0  0  0  0
  8  9  1  0  0  0  0
  9 10  1  0  0  0  0
 10 11  1  0  0  0  0
 11 12  2  0  0  0  0
 12 13  1  0  0  0  0
 13 14  2  0  0  0  0
 14 15  1  0  0  0  0
 10 15  2  0  0  0  0
 15 16  1  0  0  0  0
 16 17  2  0  0  0  0
 17 18  1  0  0  0  0
 18 19  1  0  0  0  0
 19 20  1  0  0  0  0
 20 21  2  0  0  0  0
 21 22  1  0  0  0  0
 22 23  1  0  0  0  0
 23 24  2  0  0  0  0
 24 25  1  0  0  0  0
 25 26  2  0  0  0  0
 26 27  1  0  0  0  0
 19 27  1  0  0  0  0
 22 27  2  0  0  0  0
 24 28  1  0  0  0  0
 28 29  2  0  0  0  0
 28 30  1  0  0  0  0
 16 31  1  0  0  0  0
  7 31  2  0  0  0  0
 31 32  1  0  0  0  0
  4 32  2  0  0  0  0
M  CHG  2  28   1  30  -1
M  END
>  <Name>
CHEMBL424621

>  <Target_Uniprot>
P21731

>  <CHEMBL Canonical SMILES>
OC(=O)c1ccc2OCc3ccccc3\C(=C/Cn4cnc5cc(ccc45)[N+](=O)[O-])\c2c1

>  <PubMed ID>
1388208

$$$$

  Marvin  08031817322D          

 28 29  0  0  0  0            999 V2000
    3.6489   -2.4897    0.0000 C   0  0  0  0  0  0  0  0  0  0  0  0
    2.9344   -2.0772    0.0000 C   0  0  0  0  0  0  0  0  0  0  0  0
    2.9344   -1.2522    0.0000 C   0  0  0  0  0  0  0  0  0  0  0  0
    2.2200   -0.8397    0.0000 C   0  0  0  0  0  0  0  0  0  0  0  0
    1.5055   -1.2522    0.0000 C   0  0  0  0  0  0  0  0  0  0  0  0
    0.7910   -0.8397    0.0000 S   0  0  0  0  0  0  0  0  0  0  0  0
    0.7910   -0.0147    0.0000 C   0  0  0  0  0  0  0  0  0  0  0  0
    1.5055    0.3978    0.0000 C   0  0  0  0  0  0  0  0  0  0  0  0
    1.5055    1.2228    0.0000 C   0  0  0  0  0  0  0  0  0  0  0  0
    0.7910    1.6353    0.0000 C   0  0  0  0  0  0  0  0  0  0  0  0
    0.0766    1.2228    0.0000 C   0  0  0  0  0  0  0  0  0  0  0  0
    0.0766    0.3978    0.0000 C   0  0  0  0  0  0  0  0  0  0  0  0
   -0.6379   -0.0147    0.0000 S   0  0  0  0  0  0  0  0  0  0  0  0
   -0.2254   -0.7292    0.0000 O   0  0  0  0  0  0  0  0  0  0  0  0
   -1.0504    0.6997    0.0000 O   0  0  0  0  0  0  0  0  0  0  0  0
   -1.3524   -0.4272    0.0000 N   0  0  0  0  0  0  0  0  0  0  0  0
   -2.0669   -0.0147    0.0000 C   0  0  0  0  0  0  0  0  0  0  0  0
   -2.0669    0.8103    0.0000 O   0  0  0  0  0  0  0  0  0  0  0  0
   -2.7813   -0.4272    0.0000 N   0  0  0  0  0  0  0  0  0  0  0  0
   -3.4958   -0.0147    0.0000 C   0  0  0  0  0  0  0  0  0  0  0  0
   -3.9083   -0.7292    0.0000 C   0  0  0  0  0  0  0  0  0  0  0  0
   -3.0833    0.6997    0.0000 C   0  0  0  0  0  0  0  0  0  0  0  0
   -4.2103    0.3978    0.0000 C   0  0  0  0  0  0  0  0  0  0  0  0
    0.7910    2.4603    0.0000 N   0  3  0  0  0  0  0  0  0  0  0  0
    0.0766    2.8728    0.0000 O   0  0  0  0  0  0  0  0  0  0  0  0
    1.5055    2.8728    0.0000 O   0  5  0  0  0  0  0  0  0  0  0  0
    1.5055   -2.0772    0.0000 C   0  0  0  0  0  0  0  0  0  0  0  0
    2.2200   -2.4897    0.0000 C   0  0  0  0  0  0  0  0  0  0  0  0
  1  2  1  0  0  0  0
  2  3  1  0  0  0  0
  3  4  2  0  0  0  0
  4  5  1  0  0  0  0
  5  6  1  0  0  0  0
  6  7  1  0  0  0  0
  7  8  1  0  0  0  0
  8  9  2  0  0  0  0
  9 10  1  0  0  0  0
 10 11  2  0  0  0  0
 11 12  1  0  0  0  0
  7 12  2  0  0  0  0
 12 13  1  0  0  0  0
 13 14  2  0  0  0  0
 13 15  2  0  0  0  0
 13 16  1  0  0  0  0
 16 17  1  0  0  0  0
 17 18  2  0  0  0  0
 17 19  1  0  0  0  0
 19 20  1  0  0  0  0
 20 21  1  0  0  0  0
 20 22  1  0  0  0  0
 20 23  1  0  0  0  0
 10 24  1  0  0  0  0
 24 25  2  0  0  0  0
 24 26  1  0  0  0  0
  5 27  2  0  0  0  0
 27 28  1  0  0  0  0
  2 28  2  0  0  0  0
M  CHG  2  24   1  26  -1
M  END
>  <Name>
CHEMBL380274

>  <Target_Uniprot>
P21731

>  <CHEMBL Canonical SMILES>
Cc1ccc(Sc2ccc(cc2S(=O)(=O)NC(=O)NC(C)(C)C)[N+](=O)[O-])cc1

>  <PubMed ID>
16759113

$$$$

  Marvin  08031817322D          

 27 30  0  0  0  0            999 V2000
   -2.3193   -0.7559    0.0000 O   0  0  0  0  0  0  0  0  0  0  0  0
   -1.6048   -1.1684    0.0000 C   0  0  0  0  0  0  0  0  0  0  0  0
   -1.6048   -1.9934    0.0000 O   0  0  0  0  0  0  0  0  0  0  0  0
   -0.8903   -0.7559    0.0000 C   0  0  0  0  0  0  0  0  0  0  0  0
   -0.8903    0.0691    0.0000 C   0  0  0  0  0  0  0  0  0  0  0  0
   -1.6048    0.4816    0.0000 C   0  0  0  0  0  0  0  0  0  0  0  0
   -1.6048    1.3066    0.0000 C   0  0  0  0  0  0  0  0  0  0  0  0
   -0.8903    1.7191    0.0000 C   0  0  0  0  0  0  0  0  0  0  0  0
   -0.1758    1.3066    0.0000 C   0  0  0  0  0  0  0  0  0  0  0  0
   -0.1758    0.4816    0.0000 C   0  0  0  0  0  0  0  0  0  0  0  0
    0.6088    0.2267    0.0000 N   0  0  0  0  0  0  0  0  0  0  0  0
    0.8637   -0.5579    0.0000 C   0  0  0  0  0  0  0  0  0  0  0  0
    0.3117   -1.1710    0.0000 C   0  0  0  0  0  0  0  0  0  0  0  0
   -0.4953   -0.9995    0.0000 C   0  0  0  0  0  0  0  0  0  0  0  0
   -1.0473   -1.6126    0.0000 C   0  0  0  0  0  0  0  0  0  0  0  0
   -0.7924   -2.3972    0.0000 C   0  0  0  0  0  0  0  0  0  0  0  0
   -1.3444   -3.0103    0.0000 Cl  0  0  0  0  0  0  0  0  0  0  0  0
    0.0146   -2.5687    0.0000 C   0  0  0  0  0  0  0  0  0  0  0  0
    0.5666   -1.9556    0.0000 C   0  0  0  0  0  0  0  0  0  0  0  0
    1.0937    0.8941    0.0000 C   0  0  0  0  0  0  0  0  0  0  0  0
    1.9142    0.9804    0.0000 C   0  0  0  0  0  0  0  0  0  0  0  0
    2.3991    0.3129    0.0000 F   0  0  0  0  0  0  0  0  0  0  0  0
    2.2497    1.7340    0.0000 C   0  0  0  0  0  0  0  0  0  0  0  0
    1.7648    2.4015    0.0000 C   0  0  0  0  0  0  0  0  0  0  0  0
    2.1004    3.1552    0.0000 F   0  0  0  0  0  0  0  0  0  0  0  0
    0.9443    2.3152    0.0000 C   0  0  0  0  0  0  0  0  0  0  0  0
    0.6088    1.5616    0.0000 C   0  0  0  0  0  0  0  0  0  0  0  0
  1  2  1  0  0  0  0
  2  3  2  0  0  0  0
  2  4  1  0  0  0  0
  4  5  1  0  0  0  0
  5  6  1  0  0  0  0
  6  7  1  0  0  0  0
  7  8  1  0  0  0  0
  8  9  1  0  0  0  0
  9 10  2  0  0  0  0
  5 10  1  0  0  0  0
 10 11  1  0  0  0  0
 11 12  1  0  0  0  0
 12 13  1  0  0  0  0
 13 14  1  0  0  0  0
 14 15  2  0  0  0  0
 15 16  1  0  0  0  0
 16 17  1  0  0  0  0
 16 18  2  0  0  0  0
 18 19  1  0  0  0  0
 13 19  2  0  0  0  0
 11 20  1  0  0  0  0
 20 21  1  0  0  0  0
 21 22  1  0  0  0  0
 21 23  2  0  0  0  0
 23 24  1  0  0  0  0
 24 25  1  0  0  0  0
 24 26  2  0  0  0  0
 26 27  1  0  0  0  0
  9 27  1  0  0  0  0
 20 27  2  0  0  0  0
M  END
>  <Name>
CHEMBL208260

>  <Target_Uniprot>
P21731

>  <CHEMBL Canonical SMILES>
OC(=O)CC1CCCc2c1n(Cc3ccc(Cl)cc3)c4c(F)cc(F)cc24

>  <PubMed ID>
16529930

$$$$

  Marvin  08031817322D          

 30 31  0  0  0  0            999 V2000
   -1.7385   -5.8162    0.0000 C   0  0  0  0  0  0  0  0  0  0  0  0
   -1.7385   -4.9912    0.0000 C   0  0  0  0  0  0  0  0  0  0  0  0
   -1.0241   -4.5787    0.0000 C   0  0  0  0  0  0  0  0  0  0  0  0
   -1.0241   -3.7537    0.0000 C   0  0  0  0  0  0  0  0  0  0  0  0
   -0.3096   -3.3412    0.0000 C   0  0  0  0  0  0  0  0  0  0  0  0
   -0.3096   -2.5162    0.0000 C   0  0  0  0  0  0  0  0  0  0  0  0
    0.4049   -2.1038    0.0000 N   0  0  0  0  0  0  0  0  0  0  0  0
    0.4049   -1.2788    0.0000 C   0  0  0  0  0  0  0  0  0  0  0  0
   -0.3096   -0.8662    0.0000 O   0  0  0  0  0  0  0  0  0  0  0  0
    1.1193   -0.8663    0.0000 N   0  0  0  0  0  0  0  0  0  0  0  0
    1.1193   -0.0413    0.0000 S   0  0  0  0  0  0  0  0  0  0  0  0
    1.9443   -0.0413    0.0000 O   0  0  0  0  0  0  0  0  0  0  0  0
    0.2943   -0.0413    0.0000 O   0  0  0  0  0  0  0  0  0  0  0  0
    1.1193    0.7837    0.0000 C   0  0  0  0  0  0  0  0  0  0  0  0
    1.8338    1.1962    0.0000 C   0  0  0  0  0  0  0  0  0  0  0  0
    1.8338    2.0212    0.0000 C   0  0  0  0  0  0  0  0  0  0  0  0
    1.1193    2.4337    0.0000 C   0  0  0  0  0  0  0  0  0  0  0  0
    0.4049    2.0212    0.0000 C   0  0  0  0  0  0  0  0  0  0  0  0
    0.4049    1.1962    0.0000 C   0  0  0  0  0  0  0  0  0  0  0  0
   -0.3096    0.7837    0.0000 O   0  0  0  0  0  0  0  0  0  0  0  0
   -1.0241    1.1962    0.0000 C   0  0  0  0  0  0  0  0  0  0  0  0
   -1.0241    2.0212    0.0000 C   0  0  0  0  0  0  0  0  0  0  0  0
   -1.7385    2.4337    0.0000 C   0  0  0  0  0  0  0  0  0  0  0  0
   -2.4530    2.0213    0.0000 C   0  0  0  0  0  0  0  0  0  0  0  0
   -3.1675    2.4338    0.0000 C   0  0  0  0  0  0  0  0  0  0  0  0
   -2.4530    1.1963    0.0000 C   0  0  0  0  0  0  0  0  0  0  0  0
   -1.7385    0.7838    0.0000 C   0  0  0  0  0  0  0  0  0  0  0  0
    2.5483    2.4337    0.0000 N   0  3  0  0  0  0  0  0  0  0  0  0
    2.5483    3.2587    0.0000 O   0  0  0  0  0  0  0  0  0  0  0  0
    3.2628    2.0212    0.0000 O   0  5  0  0  0  0  0  0  0  0  0  0
  1  2  1  0  0  0  0
  2  3  1  0  0  0  0
  3  4  1  0  0  0  0
  4  5  1  0  0  0  0
  5  6  1  0  0  0  0
  6  7  1  0  0  0  0
  7  8  1  0  0  0  0
  8  9  2  0  0  0  0
  8 10  1  0  0  0  0
 10 11  1  0  0  0  0
 11 12  2  0  0  0  0
 11 13  2  0  0  0  0
 11 14  1  0  0  0  0
 14 15  1  0  0  0  0
 15 16  2  0  0  0  0
 16 17  1  0  0  0  0
 17 18  2  0  0  0  0
 18 19  1  0  0  0  0
 14 19  2  0  0  0  0
 19 20  1  0  0  0  0
 20 21  1  0  0  0  0
 21 22  1  0  0  0  0
 22 23  2  0  0  0  0
 23 24  1  0  0  0  0
 24 25  1  0  0  0  0
 24 26  2  0  0  0  0
 26 27  1  0  0  0  0
 21 27  2  0  0  0  0
 16 28  1  0  0  0  0
 28 29  2  0  0  0  0
 28 30  1  0  0  0  0
M  CHG  2  28   1  30  -1
M  END
>  <Name>
CHEMBL208818

>  <Target_Uniprot>
P21731

>  <CHEMBL Canonical SMILES>
CCCCCCNC(=O)NS(=O)(=O)c1cc(ccc1Oc2ccc(C)cc2)[N+](=O)[O-]

>  <PubMed ID>
16759113

$$$$

  Marvin  08031817322D          

 24 25  0  0  1  0            999 V2000
   -4.8561   -2.7358    0.0000 C   0  0  0  0  0  0  0  0  0  0  0  0
   -4.0534   -2.5452    0.0000 C   0  0  0  0  0  0  0  0  0  0  0  0
   -3.6830   -1.8079    0.0000 C   0  0  0  0  0  0  0  0  0  0  0  0
   -2.8956   -1.5613    0.0000 C   0  0  0  0  0  0  0  0  0  0  0  0
   -2.5933   -0.7942    0.0000 C   0  0  0  0  0  0  0  0  0  0  0  0
   -1.7990   -0.5866    0.0000 C   0  0  0  0  0  0  0  0  0  0  0  0
   -1.5223    0.1768    0.0000 S   0  0  0  0  0  0  0  0  0  0  0  0
   -0.7311    0.3503    0.0000 C   0  0  0  0  0  0  0  0  0  0  0  0
   -0.4250    1.1125    0.0000 C   0  0  2  0  0  0  0  0  0  0  0  0
    0.3327    1.4186    0.0000 C   0  0  2  0  0  0  0  0  0  0  0  0
    0.9797    0.9184    0.0000 C   0  0  0  0  0  0  0  0  0  0  0  0
    1.7190    1.2371    0.0000 C   0  0  0  0  0  0  0  0  0  0  0  0
    2.3823    0.7696    0.0000 C   0  0  0  0  0  0  0  0  0  0  0  0
    2.3467   -0.0512    0.0000 C   0  0  0  0  0  0  0  0  0  0  0  0
    2.9534   -0.6097    0.0000 C   0  0  0  0  0  0  0  0  0  0  0  0
    2.9909   -1.4339    0.0000 C   0  0  0  0  0  0  0  0  0  0  0  0
    3.6501   -1.9300    0.0000 C   0  0  0  0  0  0  0  0  0  0  0  0
    4.3527   -1.4976    0.0000 O   0  0  0  0  0  0  0  0  0  0  0  0
    3.4629   -2.7336    0.0000 O   0  0  0  0  0  0  0  0  0  0  0  0
    0.2231    2.3043    0.0000 C   0  0  1  0  0  0  0  0  0  0  0  0
   -0.2879    3.0817    0.0000 C   0  0  0  0  0  0  0  0  0  0  0  0
   -1.1118    2.7571    0.0000 C   0  0  0  0  0  0  0  0  0  0  0  0
   -0.9576    1.8333    0.0000 C   0  0  0  0  0  0  0  0  0  0  0  0
   -0.4773    2.3276    0.0000 O   0  0  0  0  0  0  0  0  0  0  0  0
  1  2  1  0  0  0  0
  2  3  1  0  0  0  0
  3  4  1  0  0  0  0
  4  5  1  0  0  0  0
  5  6  1  0  0  0  0
  6  7  1  0  0  0  0
  7  8  1  0  0  0  0
  9  8  1  1  0  0  0
  9 10  1  0  0  0  0
 10 11  1  1  0  0  0
 11 12  1  0  0  0  0
 12 13  2  0  0  0  0
 13 14  1  0  0  0  0
 14 15  1  0  0  0  0
 15 16  1  0  0  0  0
 16 17  1  0  0  0  0
 17 18  2  0  0  0  0
 17 19  1  0  0  0  0
 10 20  1  0  0  0  0
 20 21  1  0  0  0  0
 21 22  1  0  0  0  0
 22 23  1  0  0  0  0
  9 23  1  0  0  0  0
 23 24  1  0  0  0  0
 20 24  1  1  0  0  0
M  END
>  <Name>
CHEMBL3349042

>  <Target_Uniprot>
P21731

>  <CHEMBL Canonical SMILES>
CCCCCCSC[C@@H]1[C@H](C\C=C/CCCC(=O)O)[C@H]2CCC1O2

>  <PubMed ID>
2523485

$$$$

  Marvin  08031817322D          

 41 45  0  0  0  0            999 V2000
   -0.1719   -3.9795    0.0000 C   0  0  0  0  0  0  0  0  0  0  0  0
   -0.4059   -3.1793    0.0000 S   0  0  0  0  0  0  0  0  0  0  0  0
   -0.5505   -2.3586    0.0000 O   0  0  0  0  0  0  0  0  0  0  0  0
   -1.2220   -3.3444    0.0000 O   0  0  0  0  0  0  0  0  0  0  0  0
    0.3914   -2.9385    0.0000 N   0  0  0  0  0  0  0  0  0  0  0  0
    0.6629   -2.1558    0.0000 C   0  0  0  0  0  0  0  0  0  0  0  0
    0.1387   -1.5118    0.0000 O   0  0  0  0  0  0  0  0  0  0  0  0
    1.4677   -1.9891    0.0000 C   0  0  0  0  0  0  0  0  0  0  0  0
    1.8492   -1.2691    0.0000 C   0  0  0  0  0  0  0  0  0  0  0  0
    2.6376   -1.0646    0.0000 C   0  0  0  0  0  0  0  0  0  0  0  0
    3.1905   -1.6833    0.0000 C   0  0  0  0  0  0  0  0  0  0  0  0
    4.0050   -1.5129    0.0000 C   0  0  0  0  0  0  0  0  0  0  0  0
    4.2616   -0.7251    0.0000 C   0  0  0  0  0  0  0  0  0  0  0  0
    3.7041   -0.1076    0.0000 C   0  0  0  0  0  0  0  0  0  0  0  0
    2.8926   -0.2831    0.0000 C   0  0  0  0  0  0  0  0  0  0  0  0
    2.3909    0.3522    0.0000 C   0  0  0  0  0  0  0  0  0  0  0  0
    2.5465    1.1189    0.0000 C   0  0  0  0  0  0  0  0  0  0  0  0
    3.4162    1.3058    0.0000 C   0  0  0  0  0  0  0  0  0  0  0  0
    3.9579    2.1218    0.0000 C   0  0  0  0  0  0  0  0  0  0  0  0
    3.4005    2.8315    0.0000 C   0  0  0  0  0  0  0  0  0  0  0  0
    2.7337    2.3915    0.0000 C   0  0  0  0  0  0  0  0  0  0  0  0
    3.5621    1.9137    0.0000 O   0  0  0  0  0  0  0  0  0  0  0  0
    2.1393    1.8261    0.0000 C   0  0  0  0  0  0  0  0  0  0  0  0
    1.2597    1.8128    0.0000 C   0  0  0  0  0  0  0  0  0  0  0  0
    0.7643    2.4861    0.0000 O   0  0  0  0  0  0  0  0  0  0  0  0
   -0.0253    2.2306    0.0000 C   0  0  0  0  0  0  0  0  0  0  0  0
   -0.0243    1.4032    0.0000 C   0  0  0  0  0  0  0  0  0  0  0  0
    0.7616    1.1420    0.0000 N   0  0  0  0  0  0  0  0  0  0  0  0
   -0.6221    0.8478    0.0000 C   0  0  0  0  0  0  0  0  0  0  0  0
   -0.6196    0.0273    0.0000 O   0  0  0  0  0  0  0  0  0  0  0  0
   -1.3693    1.1847    0.0000 N   0  0  0  0  0  0  0  0  0  0  0  0
   -2.1016    0.8091    0.0000 C   0  0  0  0  0  0  0  0  0  0  0  0
   -2.8900    1.0464    0.0000 C   0  0  0  0  0  0  0  0  0  0  0  0
   -3.6028    0.6459    0.0000 C   0  0  0  0  0  0  0  0  0  0  0  0
   -4.3685    0.8939    0.0000 C   0  0  0  0  0  0  0  0  0  0  0  0
   -5.0277    0.4397    0.0000 C   0  0  0  0  0  0  0  0  0  0  0  0
   -5.7796    0.7766    0.0000 C   0  0  0  0  0  0  0  0  0  0  0  0
   -6.4529    0.2871    0.0000 C   0  0  0  0  0  0  0  0  0  0  0  0
   -6.3633   -0.5386    0.0000 C   0  0  0  0  0  0  0  0  0  0  0  0
   -5.6032   -0.8734    0.0000 C   0  0  0  0  0  0  0  0  0  0  0  0
   -4.9334   -0.3799    0.0000 C   0  0  0  0  0  0  0  0  0  0  0  0
  1  2  1  0  0  0  0
  2  3  2  0  0  0  0
  2  4  2  0  0  0  0
  2  5  1  0  0  0  0
  5  6  1  0  0  0  0
  6  7  2  0  0  0  0
  6  8  1  0  0  0  0
  8  9  1  0  0  0  0
  9 10  1  0  0  0  0
 10 11  1  0  0  0  0
 11 12  2  0  0  0  0
 12 13  1  0  0  0  0
 13 14  2  0  0  0  0
 14 15  1  0  0  0  0
 10 15  2  0  0  0  0
 15 16  1  0  0  0  0
 16 17  1  0  0  0  0
 17 18  1  0  0  0  0
 18 19  1  0  0  0  0
 19 20  1  0  0  0  0
 20 21  1  0  0  0  0
 21 22  1  0  0  0  0
 18 22  1  0  0  0  0
 21 23  1  0  0  0  0
 17 23  1  0  0  0  0
 23 24  1  0  0  0  0
 24 25  1  0  0  0  0
 25 26  1  0  0  0  0
 26 27  2  0  0  0  0
 27 28  1  0  0  0  0
 24 28  2  0  0  0  0
 27 29  1  0  0  0  0
 29 30  2  0  0  0  0
 29 31  1  0  0  0  0
 31 32  1  0  0  0  0
 32 33  1  0  0  0  0
 33 34  1  0  0  0  0
 34 35  1  0  0  0  0
 35 36  1  0  0  0  0
 36 37  1  0  0  0  0
 37 38  1  0  0  0  0
 38 39  1  0  0  0  0
 39 40  1  0  0  0  0
 40 41  1  0  0  0  0
 36 41  1  0  0  0  0
M  END
>  <Name>
CHEMBL30398

>  <Target_Uniprot>
P21731

>  <CHEMBL Canonical SMILES>
CS(=O)(=O)NC(=O)CCc1ccccc1CC2C3CCC(O3)C2c4occ(n4)C(=O)NCCCCC5CCCCC5

>  <PubMed ID>
8496908

$$$$

  Marvin  08031817322D          

 30 31  0  0  0  0            999 V2000
   -1.8338   -5.1837    0.0000 C   0  0  0  0  0  0  0  0  0  0  0  0
   -1.1193   -4.7712    0.0000 C   0  0  0  0  0  0  0  0  0  0  0  0
   -1.1193   -3.9462    0.0000 C   0  0  0  0  0  0  0  0  0  0  0  0
   -0.4049   -3.5337    0.0000 C   0  0  0  0  0  0  0  0  0  0  0  0
   -0.4049   -2.7087    0.0000 C   0  0  0  0  0  0  0  0  0  0  0  0
    0.3096   -2.2963    0.0000 N   0  0  0  0  0  0  0  0  0  0  0  0
    0.3096   -1.4713    0.0000 C   0  0  0  0  0  0  0  0  0  0  0  0
   -0.4049   -1.0587    0.0000 O   0  0  0  0  0  0  0  0  0  0  0  0
    1.0241   -1.0588    0.0000 N   0  0  0  0  0  0  0  0  0  0  0  0
    1.0241   -0.2338    0.0000 S   0  0  0  0  0  0  0  0  0  0  0  0
    1.8491   -0.2338    0.0000 O   0  0  0  0  0  0  0  0  0  0  0  0
    0.1991   -0.2338    0.0000 O   0  0  0  0  0  0  0  0  0  0  0  0
    1.0241    0.5912    0.0000 C   0  0  0  0  0  0  0  0  0  0  0  0
    1.7385    1.0037    0.0000 C   0  0  0  0  0  0  0  0  0  0  0  0
    1.7385    1.8287    0.0000 C   0  0  0  0  0  0  0  0  0  0  0  0
    1.0241    2.2412    0.0000 C   0  0  0  0  0  0  0  0  0  0  0  0
    0.3096    1.8287    0.0000 C   0  0  0  0  0  0  0  0  0  0  0  0
    0.3096    1.0037    0.0000 C   0  0  0  0  0  0  0  0  0  0  0  0
   -0.4049    0.5912    0.0000 N   0  0  0  0  0  0  0  0  0  0  0  0
   -1.1193    1.0037    0.0000 C   0  0  0  0  0  0  0  0  0  0  0  0
   -1.1193    1.8287    0.0000 C   0  0  0  0  0  0  0  0  0  0  0  0
   -0.4049    2.2412    0.0000 C   0  0  0  0  0  0  0  0  0  0  0  0
   -1.8338    2.2413    0.0000 C   0  0  0  0  0  0  0  0  0  0  0  0
   -2.5483    1.8288    0.0000 C   0  0  0  0  0  0  0  0  0  0  0  0
   -2.5483    1.0038    0.0000 C   0  0  0  0  0  0  0  0  0  0  0  0
   -1.8338    0.5913    0.0000 C   0  0  0  0  0  0  0  0  0  0  0  0
   -1.8338   -0.2337    0.0000 C   0  0  0  0  0  0  0  0  0  0  0  0
    2.4530    2.2412    0.0000 N   0  3  0  0  0  0  0  0  0  0  0  0
    2.4530    3.0662    0.0000 O   0  0  0  0  0  0  0  0  0  0  0  0
    3.1675    1.8287    0.0000 O   0  5  0  0  0  0  0  0  0  0  0  0
  1  2  1  0  0  0  0
  2  3  1  0  0  0  0
  3  4  1  0  0  0  0
  4  5  1  0  0  0  0
  5  6  1  0  0  0  0
  6  7  1  0  0  0  0
  7  8  2  0  0  0  0
  7  9  1  0  0  0  0
  9 10  1  0  0  0  0
 10 11  2  0  0  0  0
 10 12  2  0  0  0  0
 10 13  1  0  0  0  0
 13 14  1  0  0  0  0
 14 15  2  0  0  0  0
 15 16  1  0  0  0  0
 16 17  2  0  0  0  0
 17 18  1  0  0  0  0
 13 18  2  0  0  0  0
 18 19  1  0  0  0  0
 19 20  1  0  0  0  0
 20 21  1  0  0  0  0
 21 22  1  0  0  0  0
 21 23  2  0  0  0  0
 23 24  1  0  0  0  0
 24 25  2  0  0  0  0
 25 26  1  0  0  0  0
 20 26  2  0  0  0  0
 26 27  1  0  0  0  0
 15 28  1  0  0  0  0
 28 29  2  0  0  0  0
 28 30  1  0  0  0  0
M  CHG  2  28   1  30  -1
M  END
>  <Name>
CHEMBL377679

>  <Target_Uniprot>
P21731

>  <CHEMBL Canonical SMILES>
CCCCCNC(=O)NS(=O)(=O)c1cc(ccc1Nc2c(C)cccc2C)[N+](=O)[O-]

>  <PubMed ID>
16759113

$$$$

  Marvin  08031817322D          

 30 32  0  0  0  0            999 V2000
    4.0010   -2.5575    0.0000 C   0  0  0  0  0  0  0  0  0  0  0  0
    3.2866   -2.1450    0.0000 C   0  0  0  0  0  0  0  0  0  0  0  0
    3.2866   -1.3200    0.0000 C   0  0  0  0  0  0  0  0  0  0  0  0
    2.5721   -0.9075    0.0000 C   0  0  0  0  0  0  0  0  0  0  0  0
    1.8576   -1.3200    0.0000 C   0  0  0  0  0  0  0  0  0  0  0  0
    1.1432   -0.9075    0.0000 O   0  0  0  0  0  0  0  0  0  0  0  0
    1.1432   -0.0825    0.0000 C   0  0  0  0  0  0  0  0  0  0  0  0
    1.8576    0.3300    0.0000 C   0  0  0  0  0  0  0  0  0  0  0  0
    1.8576    1.1550    0.0000 C   0  0  0  0  0  0  0  0  0  0  0  0
    1.1432    1.5675    0.0000 C   0  0  0  0  0  0  0  0  0  0  0  0
    0.4287    1.1550    0.0000 C   0  0  0  0  0  0  0  0  0  0  0  0
    0.4287    0.3300    0.0000 C   0  0  0  0  0  0  0  0  0  0  0  0
   -0.2858   -0.0825    0.0000 S   0  0  0  0  0  0  0  0  0  0  0  0
    0.1267   -0.7970    0.0000 O   0  0  0  0  0  0  0  0  0  0  0  0
   -0.6983    0.6320    0.0000 O   0  0  0  0  0  0  0  0  0  0  0  0
   -1.0003   -0.4950    0.0000 N   0  0  0  0  0  0  0  0  0  0  0  0
   -1.7147   -0.0825    0.0000 C   0  0  0  0  0  0  0  0  0  0  0  0
   -1.7147    0.7425    0.0000 O   0  0  0  0  0  0  0  0  0  0  0  0
   -2.4292   -0.4950    0.0000 N   0  0  0  0  0  0  0  0  0  0  0  0
   -3.1437   -0.0825    0.0000 C   0  0  0  0  0  0  0  0  0  0  0  0
   -3.1437    0.7425    0.0000 C   0  0  0  0  0  0  0  0  0  0  0  0
   -3.8581    1.1550    0.0000 C   0  0  0  0  0  0  0  0  0  0  0  0
   -4.5726    0.7425    0.0000 C   0  0  0  0  0  0  0  0  0  0  0  0
   -4.5726   -0.0825    0.0000 C   0  0  0  0  0  0  0  0  0  0  0  0
   -3.8581   -0.4950    0.0000 C   0  0  0  0  0  0  0  0  0  0  0  0
    1.1432    2.3925    0.0000 N   0  3  0  0  0  0  0  0  0  0  0  0
    0.4287    2.8050    0.0000 O   0  0  0  0  0  0  0  0  0  0  0  0
    1.8576    2.8050    0.0000 O   0  5  0  0  0  0  0  0  0  0  0  0
    1.8576   -2.1450    0.0000 C   0  0  0  0  0  0  0  0  0  0  0  0
    2.5721   -2.5575    0.0000 C   0  0  0  0  0  0  0  0  0  0  0  0
  1  2  1  0  0  0  0
  2  3  1  0  0  0  0
  3  4  2  0  0  0  0
  4  5  1  0  0  0  0
  5  6  1  0  0  0  0
  6  7  1  0  0  0  0
  7  8  1  0  0  0  0
  8  9  2  0  0  0  0
  9 10  1  0  0  0  0
 10 11  2  0  0  0  0
 11 12  1  0  0  0  0
  7 12  2  0  0  0  0
 12 13  1  0  0  0  0
 13 14  2  0  0  0  0
 13 15  2  0  0  0  0
 13 16  1  0  0  0  0
 16 17  1  0  0  0  0
 17 18  2  0  0  0  0
 17 19  1  0  0  0  0
 19 20  1  0  0  0  0
 20 21  1  0  0  0  0
 21 22  1  0  0  0  0
 22 23  1  0  0  0  0
 23 24  1  0  0  0  0
 24 25  1  0  0  0  0
 20 25  1  0  0  0  0
 10 26  1  0  0  0  0
 26 27  2  0  0  0  0
 26 28  1  0  0  0  0
  5 29  2  0  0  0  0
 29 30  1  0  0  0  0
  2 30  2  0  0  0  0
M  CHG  2  26   1  28  -1
M  END
>  <Name>
CHEMBL208543

>  <Target_Uniprot>
P21731

>  <CHEMBL Canonical SMILES>
Cc1ccc(Oc2ccc(cc2S(=O)(=O)NC(=O)NC3CCCCC3)[N+](=O)[O-])cc1

>  <PubMed ID>
16759113

$$$$

  Marvin  08031817322D          

 36 40  0  0  0  0            999 V2000
    3.9641   -3.1906    0.0000 O   0  0  0  0  0  0  0  0  0  0  0  0
    3.1679   -3.4192    0.0000 C   0  0  0  0  0  0  0  0  0  0  0  0
    2.8617   -4.1874    0.0000 O   0  0  0  0  0  0  0  0  0  0  0  0
    2.6777   -2.7630    0.0000 C   0  0  0  0  0  0  0  0  0  0  0  0
    2.8421   -1.9606    0.0000 C   0  0  0  0  0  0  0  0  0  0  0  0
    3.6520   -1.7903    0.0000 C   0  0  0  0  0  0  0  0  0  0  0  0
    3.9104   -1.0003    0.0000 C   0  0  0  0  0  0  0  0  0  0  0  0
    3.3532   -0.3842    0.0000 C   0  0  0  0  0  0  0  0  0  0  0  0
    2.5466   -0.5613    0.0000 C   0  0  0  0  0  0  0  0  0  0  0  0
    2.0591    0.0737    0.0000 C   0  0  0  0  0  0  0  0  0  0  0  0
    2.2202    0.8316    0.0000 C   0  0  0  0  0  0  0  0  0  0  0  0
    3.0888    1.0167    0.0000 C   0  0  0  0  0  0  0  0  0  0  0  0
    3.6294    1.8314    0.0000 C   0  0  0  0  0  0  0  0  0  0  0  0
    3.0726    2.5402    0.0000 C   0  0  0  0  0  0  0  0  0  0  0  0
    2.4060    2.1012    0.0000 C   0  0  0  0  0  0  0  0  0  0  0  0
    3.2333    1.6250    0.0000 O   0  0  0  0  0  0  0  0  0  0  0  0
    1.8126    1.5359    0.0000 C   0  0  0  0  0  0  0  0  0  0  0  0
    0.9342    1.5233    0.0000 C   0  0  0  0  0  0  0  0  0  0  0  0
    0.4393    2.1958    0.0000 O   0  0  0  0  0  0  0  0  0  0  0  0
   -0.3495    1.9406    0.0000 C   0  0  0  0  0  0  0  0  0  0  0  0
   -0.3485    1.1140    0.0000 C   0  0  0  0  0  0  0  0  0  0  0  0
    0.4366    0.8532    0.0000 N   0  0  0  0  0  0  0  0  0  0  0  0
   -0.9461    0.5593    0.0000 C   0  0  0  0  0  0  0  0  0  0  0  0
   -0.9432   -0.2604    0.0000 O   0  0  0  0  0  0  0  0  0  0  0  0
   -1.6926    0.8955    0.0000 N   0  0  0  0  0  0  0  0  0  0  0  0
   -2.4242    0.5213    0.0000 C   0  0  0  0  0  0  0  0  0  0  0  0
   -3.2111    0.7569    0.0000 C   0  0  0  0  0  0  0  0  0  0  0  0
   -3.9232    0.3585    0.0000 C   0  0  0  0  0  0  0  0  0  0  0  0
   -4.6886    0.6045    0.0000 C   0  0  0  0  0  0  0  0  0  0  0  0
   -5.3470    0.1511    0.0000 C   0  0  0  0  0  0  0  0  0  0  0  0
   -6.0980    0.4880    0.0000 C   0  0  0  0  0  0  0  0  0  0  0  0
   -6.7703   -0.0010    0.0000 C   0  0  0  0  0  0  0  0  0  0  0  0
   -6.6811   -0.8260    0.0000 C   0  0  0  0  0  0  0  0  0  0  0  0
   -5.9217   -1.1604    0.0000 C   0  0  0  0  0  0  0  0  0  0  0  0
   -5.2525   -0.6677    0.0000 C   0  0  0  0  0  0  0  0  0  0  0  0
    2.2896   -1.3452    0.0000 C   0  0  0  0  0  0  0  0  0  0  0  0
  1  2  1  0  0  0  0
  2  3  2  0  0  0  0
  2  4  1  0  0  0  0
  4  5  1  0  0  0  0
  5  6  1  0  0  0  0
  6  7  2  0  0  0  0
  7  8  1  0  0  0  0
  8  9  2  0  0  0  0
  9 10  1  0  0  0  0
 10 11  1  0  0  0  0
 11 12  1  0  0  0  0
 12 13  1  0  0  0  0
 13 14  1  0  0  0  0
 14 15  1  0  0  0  0
 15 16  1  0  0  0  0
 12 16  1  0  0  0  0
 15 17  1  0  0  0  0
 11 17  1  0  0  0  0
 17 18  1  0  0  0  0
 18 19  1  0  0  0  0
 19 20  1  0  0  0  0
 20 21  2  0  0  0  0
 21 22  1  0  0  0  0
 18 22  2  0  0  0  0
 21 23  1  0  0  0  0
 23 24  2  0  0  0  0
 23 25  1  0  0  0  0
 25 26  1  0  0  0  0
 26 27  1  0  0  0  0
 27 28  1  0  0  0  0
 28 29  1  0  0  0  0
 29 30  1  0  0  0  0
 30 31  1  0  0  0  0
 31 32  1  0  0  0  0
 32 33  1  0  0  0  0
 33 34  1  0  0  0  0
 34 35  1  0  0  0  0
 30 35  1  0  0  0  0
  9 36  1  0  0  0  0
  5 36  2  0  0  0  0
M  END
>  <Name>
CHEMBL285596

>  <Target_Uniprot>
P21731

>  <CHEMBL Canonical SMILES>
OC(=O)Cc1cccc(CC2C3CCC(O3)C2c4occ(n4)C(=O)NCCCCC5CCCCC5)c1

>  <PubMed ID>
8496908

$$$$

  Marvin  08031817322D          

 28 29  0  0  0  0            999 V2000
   -1.9138   -5.1121    0.0000 C   0  0  0  0  0  0  0  0  0  0  0  0
   -1.1993   -4.6996    0.0000 C   0  0  0  0  0  0  0  0  0  0  0  0
   -1.1993   -3.8746    0.0000 C   0  0  0  0  0  0  0  0  0  0  0  0
   -0.4848   -3.4621    0.0000 C   0  0  0  0  0  0  0  0  0  0  0  0
   -0.4848   -2.6371    0.0000 C   0  0  0  0  0  0  0  0  0  0  0  0
    0.2297   -2.2246    0.0000 N   0  0  0  0  0  0  0  0  0  0  0  0
    0.2297   -1.3996    0.0000 C   0  0  0  0  0  0  0  0  0  0  0  0
   -0.4848   -0.9871    0.0000 O   0  0  0  0  0  0  0  0  0  0  0  0
    0.9441   -0.9871    0.0000 N   0  0  0  0  0  0  0  0  0  0  0  0
    0.9441   -0.1621    0.0000 S   0  0  0  0  0  0  0  0  0  0  0  0
    1.7691   -0.1621    0.0000 O   0  0  0  0  0  0  0  0  0  0  0  0
    0.1191   -0.1621    0.0000 O   0  0  0  0  0  0  0  0  0  0  0  0
    0.9441    0.6629    0.0000 C   0  0  0  0  0  0  0  0  0  0  0  0
    1.6586    1.0754    0.0000 C   0  0  0  0  0  0  0  0  0  0  0  0
    1.6586    1.9004    0.0000 C   0  0  0  0  0  0  0  0  0  0  0  0
    0.9441    2.3129    0.0000 C   0  0  0  0  0  0  0  0  0  0  0  0
    0.2297    1.9004    0.0000 C   0  0  0  0  0  0  0  0  0  0  0  0
    0.2297    1.0754    0.0000 C   0  0  0  0  0  0  0  0  0  0  0  0
   -0.4848    0.6629    0.0000 N   0  0  0  0  0  0  0  0  0  0  0  0
   -1.1993    1.0754    0.0000 C   0  0  0  0  0  0  0  0  0  0  0  0
   -1.1993    1.9004    0.0000 C   0  0  0  0  0  0  0  0  0  0  0  0
   -1.9138    2.3129    0.0000 C   0  0  0  0  0  0  0  0  0  0  0  0
   -2.6282    1.9004    0.0000 C   0  0  0  0  0  0  0  0  0  0  0  0
   -2.6282    1.0754    0.0000 C   0  0  0  0  0  0  0  0  0  0  0  0
   -1.9138    0.6629    0.0000 C   0  0  0  0  0  0  0  0  0  0  0  0
    2.3731    2.3129    0.0000 N   0  3  0  0  0  0  0  0  0  0  0  0
    2.3731    3.1379    0.0000 O   0  0  0  0  0  0  0  0  0  0  0  0
    3.0875    1.9004    0.0000 O   0  5  0  0  0  0  0  0  0  0  0  0
  1  2  1  0  0  0  0
  2  3  1  0  0  0  0
  3  4  1  0  0  0  0
  4  5  1  0  0  0  0
  5  6  1  0  0  0  0
  6  7  1  0  0  0  0
  7  8  2  0  0  0  0
  7  9  1  0  0  0  0
  9 10  1  0  0  0  0
 10 11  2  0  0  0  0
 10 12  2  0  0  0  0
 10 13  1  0  0  0  0
 13 14  1  0  0  0  0
 14 15  2  0  0  0  0
 15 16  1  0  0  0  0
 16 17  2  0  0  0  0
 17 18  1  0  0  0  0
 13 18  2  0  0  0  0
 18 19  1  0  0  0  0
 19 20  1  0  0  0  0
 20 21  1  0  0  0  0
 21 22  1  0  0  0  0
 22 23  1  0  0  0  0
 23 24  1  0  0  0  0
 24 25  1  0  0  0  0
 20 25  1  0  0  0  0
 15 26  1  0  0  0  0
 26 27  2  0  0  0  0
 26 28  1  0  0  0  0
M  CHG  2  26   1  28  -1
M  END
>  <Name>
CHEMBL7353

>  <Target_Uniprot>
P21731

>  <CHEMBL Canonical SMILES>
CCCCCNC(=O)NS(=O)(=O)c1cc(ccc1NC2CCCCC2)[N+](=O)[O-]

>  <PubMed ID>
11327579

$$$$

  Marvin  08031817322D          

 33 35  0  0  0  0            999 V2000
   -5.2362   -3.6765    0.0000 O   0  0  0  0  0  0  0  0  0  0  0  0
   -5.8682   -3.1447    0.0000 C   0  0  0  0  0  0  0  0  0  0  0  0
   -6.6916   -3.2108    0.0000 O   0  0  0  0  0  0  0  0  0  0  0  0
   -5.6061   -2.3615    0.0000 C   0  0  0  0  0  0  0  0  0  0  0  0
   -4.8298   -2.0793    0.0000 C   0  0  0  0  0  0  0  0  0  0  0  0
   -4.5007   -1.3223    0.0000 C   0  0  0  0  0  0  0  0  0  0  0  0
   -3.7105   -1.0971    0.0000 C   0  0  0  0  0  0  0  0  0  0  0  0
   -3.4233   -0.3365    0.0000 C   0  0  0  0  0  0  0  0  0  0  0  0
   -2.6325   -0.1571    0.0000 C   0  0  0  0  0  0  0  0  0  0  0  0
   -2.3259    0.6040    0.0000 C   0  0  0  0  0  0  0  0  0  0  0  0
   -1.5644    0.9105    0.0000 C   0  0  0  0  0  0  0  0  0  0  0  0
   -0.9052    0.4299    0.0000 C   0  0  0  0  0  0  0  0  0  0  0  0
   -0.1376    0.6783    0.0000 N   0  0  0  0  0  0  0  0  0  0  0  0
    0.4844    0.1569    0.0000 C   0  0  0  0  0  0  0  0  0  0  0  0
    0.4034   -0.6608    0.0000 O   0  0  0  0  0  0  0  0  0  0  0  0
    1.2170    0.5311    0.0000 C   0  0  0  0  0  0  0  0  0  0  0  0
    1.9494    0.1500    0.0000 N   0  0  0  0  0  0  0  0  0  0  0  0
    2.6804    0.5338    0.0000 C   0  0  0  0  0  0  0  0  0  0  0  0
    2.7730    1.3540    0.0000 O   0  0  0  0  0  0  0  0  0  0  0  0
    3.3041    0.0006    0.0000 C   0  0  0  0  0  0  0  0  0  0  0  0
    4.0752    0.2439    0.0000 C   0  0  0  0  0  0  0  0  0  0  0  0
    4.7720   -0.1747    0.0000 C   0  0  0  0  0  0  0  0  0  0  0  0
    5.5496    0.1377    0.0000 C   0  0  0  0  0  0  0  0  0  0  0  0
    6.2250   -0.3387    0.0000 C   0  0  0  0  0  0  0  0  0  0  0  0
    6.9836    0.0062    0.0000 C   0  0  0  0  0  0  0  0  0  0  0  0
    7.0667    0.8221    0.0000 C   0  0  0  0  0  0  0  0  0  0  0  0
    6.3989    1.2991    0.0000 C   0  0  0  0  0  0  0  0  0  0  0  0
    5.6385    0.9579    0.0000 C   0  0  0  0  0  0  0  0  0  0  0  0
   -1.6706    1.7928    0.0000 C   0  0  0  0  0  0  0  0  0  0  0  0
   -2.1827    2.5673    0.0000 C   0  0  0  0  0  0  0  0  0  0  0  0
   -3.0061    2.2434    0.0000 C   0  0  0  0  0  0  0  0  0  0  0  0
   -2.8563    1.3218    0.0000 C   0  0  0  0  0  0  0  0  0  0  0  0
   -2.3734    1.8186    0.0000 O   0  0  0  0  0  0  0  0  0  0  0  0
  1  2  1  0  0  0  0
  2  3  2  0  0  0  0
  2  4  1  0  0  0  0
  4  5  1  0  0  0  0
  5  6  1  0  0  0  0
  6  7  1  0  0  0  0
  7  8  2  0  0  0  0
  8  9  1  0  0  0  0
  9 10  1  0  0  0  0
 10 11  1  0  0  0  0
 11 12  1  0  0  0  0
 12 13  1  0  0  0  0
 13 14  1  0  0  0  0
 14 15  2  0  0  0  0
 14 16  1  0  0  0  0
 16 17  1  0  0  0  0
 17 18  1  0  0  0  0
 18 19  2  0  0  0  0
 18 20  1  0  0  0  0
 20 21  1  0  0  0  0
 21 22  1  0  0  0  0
 22 23  1  0  0  0  0
 23 24  1  0  0  0  0
 24 25  1  0  0  0  0
 25 26  1  0  0  0  0
 26 27  1  0  0  0  0
 27 28  1  0  0  0  0
 23 28  1  0  0  0  0
 11 29  1  0  0  0  0
 29 30  1  0  0  0  0
 30 31  1  0  0  0  0
 31 32  1  0  0  0  0
 10 32  1  0  0  0  0
 32 33  1  0  0  0  0
 29 33  1  0  0  0  0
M  END
>  <Name>
CHEMBL310406

>  <Target_Uniprot>
P21731

>  <CHEMBL Canonical SMILES>
OC(=O)CCC\C=C\CC1C(CNC(=O)CNC(=O)CCCC2CCCCC2)C3CCC1O3

>  <PubMed ID>
2391688

$$$$

  Marvin  08031817322D          

 29 30  0  0  0  0            999 V2000
   -1.8478   -5.7323    0.0000 C   0  0  0  0  0  0  0  0  0  0  0  0
   -1.8478   -4.9073    0.0000 C   0  0  0  0  0  0  0  0  0  0  0  0
   -1.1333   -4.4948    0.0000 C   0  0  0  0  0  0  0  0  0  0  0  0
   -1.1333   -3.6698    0.0000 C   0  0  0  0  0  0  0  0  0  0  0  0
   -0.4188   -3.2573    0.0000 C   0  0  0  0  0  0  0  0  0  0  0  0
   -0.4188   -2.4323    0.0000 C   0  0  0  0  0  0  0  0  0  0  0  0
    0.2956   -2.0198    0.0000 N   0  0  0  0  0  0  0  0  0  0  0  0
    0.2956   -1.1948    0.0000 C   0  0  0  0  0  0  0  0  0  0  0  0
   -0.4188   -0.7823    0.0000 O   0  0  0  0  0  0  0  0  0  0  0  0
    1.0101   -0.7823    0.0000 N   0  0  0  0  0  0  0  0  0  0  0  0
    1.0101    0.0427    0.0000 S   0  0  0  0  0  0  0  0  0  0  0  0
    1.8351    0.0427    0.0000 O   0  0  0  0  0  0  0  0  0  0  0  0
    0.1851    0.0427    0.0000 O   0  0  0  0  0  0  0  0  0  0  0  0
    1.0101    0.8677    0.0000 C   0  0  0  0  0  0  0  0  0  0  0  0
    1.7246    1.2802    0.0000 C   0  0  0  0  0  0  0  0  0  0  0  0
    1.7246    2.1052    0.0000 C   0  0  0  0  0  0  0  0  0  0  0  0
    1.0101    2.5177    0.0000 C   0  0  0  0  0  0  0  0  0  0  0  0
    0.2956    2.1052    0.0000 C   0  0  0  0  0  0  0  0  0  0  0  0
    0.2956    1.2802    0.0000 C   0  0  0  0  0  0  0  0  0  0  0  0
   -0.4188    0.8677    0.0000 N   0  0  0  0  0  0  0  0  0  0  0  0
   -1.1333    1.2802    0.0000 C   0  0  0  0  0  0  0  0  0  0  0  0
   -1.1333    2.1052    0.0000 C   0  0  0  0  0  0  0  0  0  0  0  0
   -1.8478    2.5177    0.0000 C   0  0  0  0  0  0  0  0  0  0  0  0
   -2.5622    2.1052    0.0000 C   0  0  0  0  0  0  0  0  0  0  0  0
   -2.5622    1.2802    0.0000 C   0  0  0  0  0  0  0  0  0  0  0  0
   -1.8478    0.8677    0.0000 C   0  0  0  0  0  0  0  0  0  0  0  0
    2.4391    2.5177    0.0000 N   0  3  0  0  0  0  0  0  0  0  0  0
    2.4391    3.3427    0.0000 O   0  0  0  0  0  0  0  0  0  0  0  0
    3.1535    2.1052    0.0000 O   0  5  0  0  0  0  0  0  0  0  0  0
  1  2  1  0  0  0  0
  2  3  1  0  0  0  0
  3  4  1  0  0  0  0
  4  5  1  0  0  0  0
  5  6  1  0  0  0  0
  6  7  1  0  0  0  0
  7  8  1  0  0  0  0
  8  9  2  0  0  0  0
  8 10  1  0  0  0  0
 10 11  1  0  0  0  0
 11 12  2  0  0  0  0
 11 13  2  0  0  0  0
 11 14  1  0  0  0  0
 14 15  1  0  0  0  0
 15 16  2  0  0  0  0
 16 17  1  0  0  0  0
 17 18  2  0  0  0  0
 18 19  1  0  0  0  0
 14 19  2  0  0  0  0
 19 20  1  0  0  0  0
 20 21  1  0  0  0  0
 21 22  1  0  0  0  0
 22 23  1  0  0  0  0
 23 24  1  0  0  0  0
 24 25  1  0  0  0  0
 25 26  1  0  0  0  0
 21 26  1  0  0  0  0
 16 27  1  0  0  0  0
 27 28  2  0  0  0  0
 27 29  1  0  0  0  0
M  CHG  2  27   1  29  -1
M  END
>  <Name>
CHEMBL379736

>  <Target_Uniprot>
P21731

>  <CHEMBL Canonical SMILES>
CCCCCCNC(=O)NS(=O)(=O)c1cc(ccc1NC2CCCCC2)[N+](=O)[O-]

>  <PubMed ID>
16759113

$$$$

  Marvin  08031817322D          

 30 31  0  0  0  0            999 V2000
   -1.7385   -5.2387    0.0000 C   0  0  0  0  0  0  0  0  0  0  0  0
   -1.0241   -4.8262    0.0000 C   0  0  0  0  0  0  0  0  0  0  0  0
   -1.0241   -4.0012    0.0000 C   0  0  0  0  0  0  0  0  0  0  0  0
   -0.3096   -3.5887    0.0000 C   0  0  0  0  0  0  0  0  0  0  0  0
   -0.3096   -2.7637    0.0000 C   0  0  0  0  0  0  0  0  0  0  0  0
    0.4049   -2.3513    0.0000 N   0  0  0  0  0  0  0  0  0  0  0  0
    0.4049   -1.5263    0.0000 C   0  0  0  0  0  0  0  0  0  0  0  0
   -0.3096   -1.1137    0.0000 O   0  0  0  0  0  0  0  0  0  0  0  0
    1.1193   -1.1138    0.0000 N   0  0  0  0  0  0  0  0  0  0  0  0
    1.1193   -0.2888    0.0000 S   0  0  0  0  0  0  0  0  0  0  0  0
    1.9443   -0.2888    0.0000 O   0  0  0  0  0  0  0  0  0  0  0  0
    0.2943   -0.2888    0.0000 O   0  0  0  0  0  0  0  0  0  0  0  0
    1.1193    0.5362    0.0000 C   0  0  0  0  0  0  0  0  0  0  0  0
    1.8338    0.9487    0.0000 C   0  0  0  0  0  0  0  0  0  0  0  0
    1.8338    1.7737    0.0000 C   0  0  0  0  0  0  0  0  0  0  0  0
    1.1193    2.1862    0.0000 C   0  0  0  0  0  0  0  0  0  0  0  0
    0.4049    1.7737    0.0000 C   0  0  0  0  0  0  0  0  0  0  0  0
    0.4049    0.9487    0.0000 C   0  0  0  0  0  0  0  0  0  0  0  0
   -0.3096    0.5362    0.0000 N   0  0  0  0  0  0  0  0  0  0  0  0
   -1.0241    0.9487    0.0000 C   0  0  0  0  0  0  0  0  0  0  0  0
   -1.0241    1.7737    0.0000 C   0  0  0  0  0  0  0  0  0  0  0  0
   -1.7385    2.1863    0.0000 C   0  0  0  0  0  0  0  0  0  0  0  0
   -1.7385    3.0112    0.0000 C   0  0  0  0  0  0  0  0  0  0  0  0
   -2.4530    1.7738    0.0000 C   0  0  0  0  0  0  0  0  0  0  0  0
   -2.4530    0.9488    0.0000 C   0  0  0  0  0  0  0  0  0  0  0  0
   -3.1675    0.5363    0.0000 C   0  0  0  0  0  0  0  0  0  0  0  0
   -1.7385    0.5363    0.0000 C   0  0  0  0  0  0  0  0  0  0  0  0
    2.5483    2.1862    0.0000 N   0  3  0  0  0  0  0  0  0  0  0  0
    2.5483    3.0112    0.0000 O   0  0  0  0  0  0  0  0  0  0  0  0
    3.2628    1.7737    0.0000 O   0  5  0  0  0  0  0  0  0  0  0  0
  1  2  1  0  0  0  0
  2  3  1  0  0  0  0
  3  4  1  0  0  0  0
  4  5  1  0  0  0  0
  5  6  1  0  0  0  0
  6  7  1  0  0  0  0
  7  8  2  0  0  0  0
  7  9  1  0  0  0  0
  9 10  1  0  0  0  0
 10 11  2  0  0  0  0
 10 12  2  0  0  0  0
 10 13  1  0  0  0  0
 13 14  1  0  0  0  0
 14 15  2  0  0  0  0
 15 16  1  0  0  0  0
 16 17  2  0  0  0  0
 17 18  1  0  0  0  0
 13 18  2  0  0  0  0
 18 19  1  0  0  0  0
 19 20  1  0  0  0  0
 20 21  1  0  0  0  0
 21 22  2  0  0  0  0
 22 23  1  0  0  0  0
 22 24  1  0  0  0  0
 24 25  2  0  0  0  0
 25 26  1  0  0  0  0
 25 27  1  0  0  0  0
 20 27  2  0  0  0  0
 15 28  1  0  0  0  0
 28 29  2  0  0  0  0
 28 30  1  0  0  0  0
M  CHG  2  28   1  30  -1
M  END
>  <Name>
CHEMBL379659

>  <Target_Uniprot>
P21731

>  <CHEMBL Canonical SMILES>
CCCCCNC(=O)NS(=O)(=O)c1cc(ccc1Nc2cc(C)cc(C)c2)[N+](=O)[O-]

>  <PubMed ID>
16759113

$$$$

  Marvin  08031817322D          

 28 29  0  0  0  0            999 V2000
    3.6489   -2.4897    0.0000 C   0  0  0  0  0  0  0  0  0  0  0  0
    2.9344   -2.0772    0.0000 C   0  0  0  0  0  0  0  0  0  0  0  0
    2.9344   -1.2522    0.0000 C   0  0  0  0  0  0  0  0  0  0  0  0
    2.2200   -0.8397    0.0000 C   0  0  0  0  0  0  0  0  0  0  0  0
    1.5055   -1.2522    0.0000 C   0  0  0  0  0  0  0  0  0  0  0  0
    0.7910   -0.8397    0.0000 N   0  0  0  0  0  0  0  0  0  0  0  0
    0.7910   -0.0147    0.0000 C   0  0  0  0  0  0  0  0  0  0  0  0
    1.5055    0.3978    0.0000 C   0  0  0  0  0  0  0  0  0  0  0  0
    1.5055    1.2228    0.0000 C   0  0  0  0  0  0  0  0  0  0  0  0
    0.7910    1.6353    0.0000 C   0  0  0  0  0  0  0  0  0  0  0  0
    0.0766    1.2228    0.0000 C   0  0  0  0  0  0  0  0  0  0  0  0
    0.0766    0.3978    0.0000 C   0  0  0  0  0  0  0  0  0  0  0  0
   -0.6379   -0.0147    0.0000 S   0  0  0  0  0  0  0  0  0  0  0  0
   -0.2254   -0.7292    0.0000 O   0  0  0  0  0  0  0  0  0  0  0  0
   -1.0504    0.6997    0.0000 O   0  0  0  0  0  0  0  0  0  0  0  0
   -1.3524   -0.4272    0.0000 N   0  0  0  0  0  0  0  0  0  0  0  0
   -2.0669   -0.0147    0.0000 C   0  0  0  0  0  0  0  0  0  0  0  0
   -2.0669    0.8103    0.0000 O   0  0  0  0  0  0  0  0  0  0  0  0
   -2.7813   -0.4272    0.0000 N   0  0  0  0  0  0  0  0  0  0  0  0
   -3.4958   -0.0147    0.0000 C   0  0  0  0  0  0  0  0  0  0  0  0
   -3.9083   -0.7292    0.0000 C   0  0  0  0  0  0  0  0  0  0  0  0
   -3.0833    0.6997    0.0000 C   0  0  0  0  0  0  0  0  0  0  0  0
   -4.2103    0.3978    0.0000 C   0  0  0  0  0  0  0  0  0  0  0  0
    0.7910    2.4603    0.0000 N   0  3  0  0  0  0  0  0  0  0  0  0
    0.0766    2.8728    0.0000 O   0  0  0  0  0  0  0  0  0  0  0  0
    1.5055    2.8728    0.0000 O   0  5  0  0  0  0  0  0  0  0  0  0
    1.5055   -2.0772    0.0000 C   0  0  0  0  0  0  0  0  0  0  0  0
    2.2200   -2.4897    0.0000 C   0  0  0  0  0  0  0  0  0  0  0  0
  1  2  1  0  0  0  0
  2  3  1  0  0  0  0
  3  4  2  0  0  0  0
  4  5  1  0  0  0  0
  5  6  1  0  0  0  0
  6  7  1  0  0  0  0
  7  8  1  0  0  0  0
  8  9  2  0  0  0  0
  9 10  1  0  0  0  0
 10 11  2  0  0  0  0
 11 12  1  0  0  0  0
  7 12  2  0  0  0  0
 12 13  1  0  0  0  0
 13 14  2  0  0  0  0
 13 15  2  0  0  0  0
 13 16  1  0  0  0  0
 16 17  1  0  0  0  0
 17 18  2  0  0  0  0
 17 19  1  0  0  0  0
 19 20  1  0  0  0  0
 20 21  1  0  0  0  0
 20 22  1  0  0  0  0
 20 23  1  0  0  0  0
 10 24  1  0  0  0  0
 24 25  2  0  0  0  0
 24 26  1  0  0  0  0
  5 27  2  0  0  0  0
 27 28  1  0  0  0  0
  2 28  2  0  0  0  0
M  CHG  2  24   1  26  -1
M  END
>  <Name>
CHEMBL210602

>  <Target_Uniprot>
P21731

>  <CHEMBL Canonical SMILES>
Cc1ccc(Nc2ccc(cc2S(=O)(=O)NC(=O)NC(C)(C)C)[N+](=O)[O-])cc1

>  <PubMed ID>
16759113

$$$$

  Marvin  08031817322D          

 31 34  0  0  0  0            999 V2000
   -1.0417   -2.9901    0.0000 O   0  0  0  0  0  0  0  0  0  0  0  0
   -0.5537   -3.6546    0.0000 C   0  0  0  0  0  0  0  0  0  0  0  0
   -0.7349   -4.4583    0.0000 O   0  0  0  0  0  0  0  0  0  0  0  0
    0.2348   -3.4420    0.0000 C   0  0  0  0  0  0  0  0  0  0  0  0
    0.6342   -2.7271    0.0000 C   0  0  0  0  0  0  0  0  0  0  0  0
    1.4316   -2.4987    0.0000 C   0  0  0  0  0  0  0  0  0  0  0  0
    1.9860   -3.1121    0.0000 C   0  0  0  0  0  0  0  0  0  0  0  0
    2.8030   -2.9418    0.0000 C   0  0  0  0  0  0  0  0  0  0  0  0
    3.0580   -2.1610    0.0000 C   0  0  0  0  0  0  0  0  0  0  0  0
    2.5065   -1.5481    0.0000 C   0  0  0  0  0  0  0  0  0  0  0  0
    1.6979   -1.7281    0.0000 C   0  0  0  0  0  0  0  0  0  0  0  0
    1.2082   -1.1098    0.0000 C   0  0  0  0  0  0  0  0  0  0  0  0
    1.3518   -0.3052    0.0000 C   0  0  0  0  0  0  0  0  0  0  0  0
    2.1794    0.0289    0.0000 C   0  0  0  0  0  0  0  0  0  0  0  0
    2.7917    0.7297    0.0000 C   0  0  0  0  0  0  0  0  0  0  0  0
    2.2598    1.4412    0.0000 C   0  0  0  0  0  0  0  0  0  0  0  0
    1.4151    1.0517    0.0000 C   0  0  0  0  0  0  0  0  0  0  0  0
    2.0228    0.7095    0.0000 O   0  0  0  0  0  0  0  0  0  0  0  0
    0.8612    0.3522    0.0000 C   0  0  0  0  0  0  0  0  0  0  0  0
    0.0467    0.4362    0.0000 C   0  0  0  0  0  0  0  0  0  0  0  0
   -0.3166    1.1640    0.0000 N   0  0  0  0  0  0  0  0  0  0  0  0
   -1.1322    1.1386    0.0000 N   0  0  0  0  0  0  0  0  0  0  0  0
   -1.5540    1.8357    0.0000 C   0  0  0  0  0  0  0  0  0  0  0  0
   -1.1599    2.5528    0.0000 O   0  0  0  0  0  0  0  0  0  0  0  0
   -2.3719    1.8322    0.0000 N   0  0  0  0  0  0  0  0  0  0  0  0
   -2.8572    2.5116    0.0000 C   0  0  0  0  0  0  0  0  0  0  0  0
   -2.4456    3.2272    0.0000 C   0  0  0  0  0  0  0  0  0  0  0  0
   -2.8594    3.9488    0.0000 C   0  0  0  0  0  0  0  0  0  0  0  0
   -3.6819    3.9539    0.0000 C   0  0  0  0  0  0  0  0  0  0  0  0
   -4.0954    3.2429    0.0000 C   0  0  0  0  0  0  0  0  0  0  0  0
   -3.6840    2.5199    0.0000 C   0  0  0  0  0  0  0  0  0  0  0  0
  1  2  1  0  0  0  0
  2  3  2  0  0  0  0
  2  4  1  0  0  0  0
  4  5  1  0  0  0  0
  5  6  1  0  0  0  0
  6  7  1  0  0  0  0
  7  8  2  0  0  0  0
  8  9  1  0  0  0  0
  9 10  2  0  0  0  0
 10 11  1  0  0  0  0
  6 11  2  0  0  0  0
 11 12  1  0  0  0  0
 12 13  1  0  0  0  0
 13 14  1  0  0  0  0
 14 15  1  0  0  0  0
 15 16  1  0  0  0  0
 16 17  1  0  0  0  0
 17 18  1  0  0  0  0
 14 18  1  0  0  0  0
 17 19  1  0  0  0  0
 13 19  1  0  0  0  0
 19 20  1  0  0  0  0
 20 21  2  0  0  0  0
 21 22  1  0  0  0  0
 22 23  1  0  0  0  0
 23 24  2  0  0  0  0
 23 25  1  0  0  0  0
 25 26  1  0  0  0  0
 26 27  1  0  0  0  0
 27 28  2  0  0  0  0
 28 29  1  0  0  0  0
 29 30  2  0  0  0  0
 30 31  1  0  0  0  0
 26 31  2  0  0  0  0
M  END
>  <Name>
CHEMBL95872

>  <Target_Uniprot>
P21731

>  <CHEMBL Canonical SMILES>
OC(=O)CCc1ccccc1CC2C3CCC(O3)C2\C=N\NC(=O)Nc4ccccc4

>  <PubMed ID>
1910091

$$$$

  Marvin  08031817322D          

 37 41  0  0  0  0            999 V2000
    0.0806   -1.8908    0.0000 O   0  0  0  0  0  0  0  0  0  0  0  0
    0.5761   -2.5580    0.0000 C   0  0  0  0  0  0  0  0  0  0  0  0
    0.3898   -3.3670    0.0000 O   0  0  0  0  0  0  0  0  0  0  0  0
    1.3697   -2.3324    0.0000 C   0  0  0  0  0  0  0  0  0  0  0  0
    1.7795   -1.6247    0.0000 C   0  0  0  0  0  0  0  0  0  0  0  0
    2.5690   -1.4048    0.0000 C   0  0  0  0  0  0  0  0  0  0  0  0
    3.1231   -2.0222    0.0000 C   0  0  0  0  0  0  0  0  0  0  0  0
    3.9374   -1.8522    0.0000 C   0  0  0  0  0  0  0  0  0  0  0  0
    4.1935   -1.0659    0.0000 C   0  0  0  0  0  0  0  0  0  0  0  0
    3.6366   -0.4492    0.0000 C   0  0  0  0  0  0  0  0  0  0  0  0
    2.8253   -0.6249    0.0000 C   0  0  0  0  0  0  0  0  0  0  0  0
    2.3255    0.0102    0.0000 C   0  0  0  0  0  0  0  0  0  0  0  0
    2.4790    0.7755    0.0000 C   0  0  0  0  0  0  0  0  0  0  0  0
    3.3482    0.9618    0.0000 C   0  0  0  0  0  0  0  0  0  0  0  0
    3.8901    1.7783    0.0000 C   0  0  0  0  0  0  0  0  0  0  0  0
    3.3336    2.4875    0.0000 C   0  0  0  0  0  0  0  0  0  0  0  0
    2.6671    2.0463    0.0000 C   0  0  0  0  0  0  0  0  0  0  0  0
    3.4933    1.5670    0.0000 O   0  0  0  0  0  0  0  0  0  0  0  0
    2.0726    1.4821    0.0000 C   0  0  0  0  0  0  0  0  0  0  0  0
    1.1947    1.4700    0.0000 C   0  0  0  0  0  0  0  0  0  0  0  0
    0.7004    2.1424    0.0000 O   0  0  0  0  0  0  0  0  0  0  0  0
   -0.0884    1.8870    0.0000 C   0  0  0  0  0  0  0  0  0  0  0  0
   -0.0877    1.0603    0.0000 C   0  0  0  0  0  0  0  0  0  0  0  0
    0.6974    0.7997    0.0000 N   0  0  0  0  0  0  0  0  0  0  0  0
   -0.6856    0.5054    0.0000 C   0  0  0  0  0  0  0  0  0  0  0  0
   -0.6822   -0.3140    0.0000 O   0  0  0  0  0  0  0  0  0  0  0  0
   -1.4318    0.8419    0.0000 O   0  0  0  0  0  0  0  0  0  0  0  0
   -2.1633    0.4683    0.0000 C   0  0  0  0  0  0  0  0  0  0  0  0
   -2.9502    0.7029    0.0000 C   0  0  0  0  0  0  0  0  0  0  0  0
   -3.6621    0.3054    0.0000 C   0  0  0  0  0  0  0  0  0  0  0  0
   -4.4266    0.5514    0.0000 C   0  0  0  0  0  0  0  0  0  0  0  0
   -5.0856    0.0978    0.0000 C   0  0  0  0  0  0  0  0  0  0  0  0
   -5.8363    0.4339    0.0000 C   0  0  0  0  0  0  0  0  0  0  0  0
   -6.5095   -0.0550    0.0000 C   0  0  0  0  0  0  0  0  0  0  0  0
   -6.4203   -0.8796    0.0000 C   0  0  0  0  0  0  0  0  0  0  0  0
   -5.6612   -1.2141    0.0000 C   0  0  0  0  0  0  0  0  0  0  0  0
   -4.9917   -0.7206    0.0000 C   0  0  0  0  0  0  0  0  0  0  0  0
  1  2  1  0  0  0  0
  2  3  2  0  0  0  0
  2  4  1  0  0  0  0
  4  5  1  0  0  0  0
  5  6  1  0  0  0  0
  6  7  1  0  0  0  0
  7  8  2  0  0  0  0
  8  9  1  0  0  0  0
  9 10  2  0  0  0  0
 10 11  1  0  0  0  0
  6 11  2  0  0  0  0
 11 12  1  0  0  0  0
 12 13  1  0  0  0  0
 13 14  1  0  0  0  0
 14 15  1  0  0  0  0
 15 16  1  0  0  0  0
 16 17  1  0  0  0  0
 17 18  1  0  0  0  0
 14 18  1  0  0  0  0
 17 19  1  0  0  0  0
 13 19  1  0  0  0  0
 19 20  1  0  0  0  0
 20 21  1  0  0  0  0
 21 22  1  0  0  0  0
 22 23  2  0  0  0  0
 23 24  1  0  0  0  0
 20 24  2  0  0  0  0
 23 25  1  0  0  0  0
 25 26  2  0  0  0  0
 25 27  1  0  0  0  0
 27 28  1  0  0  0  0
 28 29  1  0  0  0  0
 29 30  1  0  0  0  0
 30 31  1  0  0  0  0
 31 32  1  0  0  0  0
 32 33  1  0  0  0  0
 33 34  1  0  0  0  0
 34 35  1  0  0  0  0
 35 36  1  0  0  0  0
 36 37  1  0  0  0  0
 32 37  1  0  0  0  0
M  END
>  <Name>
CHEMBL286978

>  <Target_Uniprot>
P21731

>  <CHEMBL Canonical SMILES>
OC(=O)CCc1ccccc1CC2C3CCC(O3)C2c4occ(n4)C(=O)OCCCCC5CCCCC5

>  <PubMed ID>
8496908

$$$$

  Marvin  08031817322D          

 39 44  0  0  0  0            999 V2000
   -1.6018   -1.3899    0.0000 O   0  0  0  0  0  0  0  0  0  0  0  0
   -1.5278   -2.2116    0.0000 C   0  0  0  0  0  0  0  0  0  0  0  0
   -2.2024   -2.6865    0.0000 O   0  0  0  0  0  0  0  0  0  0  0  0
   -0.7793   -2.5584    0.0000 C   0  0  0  0  0  0  0  0  0  0  0  0
   -0.7053   -3.3801    0.0000 C   0  0  0  0  0  0  0  0  0  0  0  0
    0.0433   -3.7269    0.0000 C   0  0  0  0  0  0  0  0  0  0  0  0
    0.7179   -3.2520    0.0000 C   0  0  0  0  0  0  0  0  0  0  0  0
    1.4064   -3.7065    0.0000 O   0  0  0  0  0  0  0  0  0  0  0  0
    2.1910   -3.4515    0.0000 C   0  0  0  0  0  0  0  0  0  0  0  0
    2.4809   -2.6792    0.0000 C   0  0  0  0  0  0  0  0  0  0  0  0
    3.3058   -2.6668    0.0000 C   0  0  0  0  0  0  0  0  0  0  0  0
    3.7076   -1.9463    0.0000 C   0  0  0  0  0  0  0  0  0  0  0  0
    3.2844   -1.2380    0.0000 C   0  0  0  0  0  0  0  0  0  0  0  0
    2.4595   -1.2504    0.0000 C   0  0  0  0  0  0  0  0  0  0  0  0
    2.0578   -1.9709    0.0000 C   0  0  0  0  0  0  0  0  0  0  0  0
    1.2402   -1.8602    0.0000 C   0  0  0  0  0  0  0  0  0  0  0  0
    0.9853   -1.0756    0.0000 C   0  0  0  0  0  0  0  0  0  0  0  0
    1.5373   -0.4625    0.0000 C   0  0  0  0  0  0  0  0  0  0  0  0
    1.2824    0.3221    0.0000 N   0  0  0  0  0  0  0  0  0  0  0  0
    1.7673    0.9896    0.0000 C   0  0  0  0  0  0  0  0  0  0  0  0
    1.2824    1.6570    0.0000 N   0  0  0  0  0  0  0  0  0  0  0  0
    0.4978    1.4021    0.0000 C   0  0  0  0  0  0  0  0  0  0  0  0
   -0.2167    1.8146    0.0000 C   0  0  0  0  0  0  0  0  0  0  0  0
   -0.9312    1.4021    0.0000 C   0  0  0  0  0  0  0  0  0  0  0  0
   -0.9312    0.5771    0.0000 C   0  0  0  0  0  0  0  0  0  0  0  0
   -0.2167    0.1646    0.0000 C   0  0  0  0  0  0  0  0  0  0  0  0
    0.4978    0.5771    0.0000 C   0  0  0  0  0  0  0  0  0  0  0  0
   -1.6456    1.8146    0.0000 C   0  0  0  0  0  0  0  0  0  0  0  0
   -2.3601    1.4021    0.0000 O   0  0  0  0  0  0  0  0  0  0  0  0
   -1.6456    2.6396    0.0000 N   0  0  0  0  0  0  0  0  0  0  0  0
   -2.3601    3.0521    0.0000 C   0  0  0  0  0  0  0  0  0  0  0  0
   -2.3601    3.8771    0.0000 C   0  0  0  0  0  0  0  0  0  0  0  0
   -1.6456    4.2896    0.0000 C   0  0  0  0  0  0  0  0  0  0  0  0
   -1.6456    5.1146    0.0000 C   0  0  0  0  0  0  0  0  0  0  0  0
   -2.3601    5.5271    0.0000 C   0  0  0  0  0  0  0  0  0  0  0  0
   -3.0746    5.1146    0.0000 C   0  0  0  0  0  0  0  0  0  0  0  0
   -3.0746    4.2896    0.0000 C   0  0  0  0  0  0  0  0  0  0  0  0
    0.6439   -2.4303    0.0000 C   0  0  0  0  0  0  0  0  0  0  0  0
   -0.1046   -2.0835    0.0000 C   0  0  0  0  0  0  0  0  0  0  0  0
  1  2  1  0  0  0  0
  2  3  2  0  0  0  0
  2  4  1  0  0  0  0
  4  5  1  0  0  0  0
  5  6  2  0  0  0  0
  6  7  1  0  0  0  0
  7  8  1  0  0  0  0
  8  9  1  0  0  0  0
  9 10  1  0  0  0  0
 10 11  1  0  0  0  0
 11 12  2  0  0  0  0
 12 13  1  0  0  0  0
 13 14  2  0  0  0  0
 14 15  1  0  0  0  0
 10 15  2  0  0  0  0
 15 16  1  0  0  0  0
 16 17  2  0  0  0  0
 17 18  1  0  0  0  0
 18 19  1  0  0  0  0
 19 20  1  0  0  0  0
 20 21  2  0  0  0  0
 21 22  1  0  0  0  0
 22 23  1  0  0  0  0
 23 24  2  0  0  0  0
 24 25  1  0  0  0  0
 25 26  2  0  0  0  0
 26 27  1  0  0  0  0
 19 27  1  0  0  0  0
 22 27  2  0  0  0  0
 24 28  1  0  0  0  0
 28 29  2  0  0  0  0
 28 30  1  0  0  0  0
 30 31  1  0  0  0  0
 31 32  1  0  0  0  0
 32 33  1  0  0  0  0
 33 34  2  0  0  0  0
 34 35  1  0  0  0  0
 35 36  2  0  0  0  0
 36 37  1  0  0  0  0
 32 37  2  0  0  0  0
 16 38  1  0  0  0  0
  7 38  2  0  0  0  0
 38 39  1  0  0  0  0
  4 39  2  0  0  0  0
M  END
>  <Name>
CHEMBL431075

>  <Target_Uniprot>
P21731

>  <CHEMBL Canonical SMILES>
OC(=O)c1ccc2OCc3ccccc3\C(=C/Cn4cnc5cc(ccc45)C(=O)NCc6ccccc6)\c2c1

>  <PubMed ID>
1388208

$$$$

  Marvin  08031817322D          

 38 42  0  0  0  0            999 V2000
    0.9720   -3.8240    0.0000 O   0  0  0  0  0  0  0  0  0  0  0  0
    0.3500   -3.2717    0.0000 C   0  0  0  0  0  0  0  0  0  0  0  0
   -0.4766   -3.3585    0.0000 O   0  0  0  0  0  0  0  0  0  0  0  0
    0.6433   -2.4956    0.0000 C   0  0  0  0  0  0  0  0  0  0  0  0
    1.4005   -2.1743    0.0000 C   0  0  0  0  0  0  0  0  0  0  0  0
    1.7708   -1.4494    0.0000 C   0  0  0  0  0  0  0  0  0  0  0  0
    2.5619   -1.2567    0.0000 C   0  0  0  0  0  0  0  0  0  0  0  0
    3.1149   -1.8754    0.0000 C   0  0  0  0  0  0  0  0  0  0  0  0
    3.9299   -1.7051    0.0000 C   0  0  0  0  0  0  0  0  0  0  0  0
    4.1864   -0.9173    0.0000 C   0  0  0  0  0  0  0  0  0  0  0  0
    3.6284   -0.2996    0.0000 C   0  0  0  0  0  0  0  0  0  0  0  0
    2.8165   -0.4755    0.0000 C   0  0  0  0  0  0  0  0  0  0  0  0
    2.3137    0.1591    0.0000 C   0  0  0  0  0  0  0  0  0  0  0  0
    2.4677    0.9255    0.0000 C   0  0  0  0  0  0  0  0  0  0  0  0
    3.3386    1.1117    0.0000 C   0  0  0  0  0  0  0  0  0  0  0  0
    3.8811    1.9301    0.0000 C   0  0  0  0  0  0  0  0  0  0  0  0
    3.3240    2.6401    0.0000 C   0  0  0  0  0  0  0  0  0  0  0  0
    2.6571    2.1979    0.0000 C   0  0  0  0  0  0  0  0  0  0  0  0
    3.4842    1.7175    0.0000 O   0  0  0  0  0  0  0  0  0  0  0  0
    2.0611    1.6333    0.0000 C   0  0  0  0  0  0  0  0  0  0  0  0
    1.1815    1.6216    0.0000 C   0  0  0  0  0  0  0  0  0  0  0  0
    0.6863    2.2950    0.0000 O   0  0  0  0  0  0  0  0  0  0  0  0
   -0.1035    2.0393    0.0000 C   0  0  0  0  0  0  0  0  0  0  0  0
   -0.1028    1.2114    0.0000 C   0  0  0  0  0  0  0  0  0  0  0  0
    0.6833    0.9505    0.0000 N   0  0  0  0  0  0  0  0  0  0  0  0
   -0.7019    0.6560    0.0000 C   0  0  0  0  0  0  0  0  0  0  0  0
   -0.6982   -0.1648    0.0000 O   0  0  0  0  0  0  0  0  0  0  0  0
   -1.4494    0.9929    0.0000 N   0  0  0  0  0  0  0  0  0  0  0  0
   -2.1816    0.6176    0.0000 C   0  0  0  0  0  0  0  0  0  0  0  0
   -2.9693    0.8545    0.0000 C   0  0  0  0  0  0  0  0  0  0  0  0
   -3.6815    0.4545    0.0000 C   0  0  0  0  0  0  0  0  0  0  0  0
   -4.4469    0.7021    0.0000 C   0  0  0  0  0  0  0  0  0  0  0  0
   -5.1075    0.2477    0.0000 C   0  0  0  0  0  0  0  0  0  0  0  0
   -5.8594    0.5843    0.0000 C   0  0  0  0  0  0  0  0  0  0  0  0
   -6.5333    0.0946    0.0000 C   0  0  0  0  0  0  0  0  0  0  0  0
   -6.4440   -0.7311    0.0000 C   0  0  0  0  0  0  0  0  0  0  0  0
   -5.6839   -1.0660    0.0000 C   0  0  0  0  0  0  0  0  0  0  0  0
   -5.0135   -0.5719    0.0000 C   0  0  0  0  0  0  0  0  0  0  0  0
  1  2  1  0  0  0  0
  2  3  2  0  0  0  0
  2  4  1  0  0  0  0
  4  5  1  0  0  0  0
  5  6  1  0  0  0  0
  6  7  1  0  0  0  0
  7  8  1  0  0  0  0
  8  9  2  0  0  0  0
  9 10  1  0  0  0  0
 10 11  2  0  0  0  0
 11 12  1  0  0  0  0
  7 12  2  0  0  0  0
 12 13  1  0  0  0  0
 13 14  1  0  0  0  0
 14 15  1  0  0  0  0
 15 16  1  0  0  0  0
 16 17  1  0  0  0  0
 17 18  1  0  0  0  0
 18 19  1  0  0  0  0
 15 19  1  0  0  0  0
 18 20  1  0  0  0  0
 14 20  1  0  0  0  0
 20 21  1  0  0  0  0
 21 22  1  0  0  0  0
 22 23  1  0  0  0  0
 23 24  2  0  0  0  0
 24 25  1  0  0  0  0
 21 25  2  0  0  0  0
 24 26  1  0  0  0  0
 26 27  2  0  0  0  0
 26 28  1  0  0  0  0
 28 29  1  0  0  0  0
 29 30  1  0  0  0  0
 30 31  1  0  0  0  0
 31 32  1  0  0  0  0
 32 33  1  0  0  0  0
 33 34  1  0  0  0  0
 34 35  1  0  0  0  0
 35 36  1  0  0  0  0
 36 37  1  0  0  0  0
 37 38  1  0  0  0  0
 33 38  1  0  0  0  0
M  END
>  <Name>
CHEMBL31154

>  <Target_Uniprot>
P21731

>  <CHEMBL Canonical SMILES>
OC(=O)CCCc1ccccc1CC2C3CCC(O3)C2c4occ(n4)C(=O)NCCCCC5CCCCC5

>  <PubMed ID>
8496908

$$$$

  Marvin  08031817322D          

 26 29  0  0  1  0            999 V2000
   -2.5726   -0.1495    0.0000 O   0  0  0  0  0  0  0  0  0  0  0  0
   -2.0206   -0.7626    0.0000 C   0  0  0  0  0  0  0  0  0  0  0  0
   -2.2755   -1.5472    0.0000 O   0  0  0  0  0  0  0  0  0  0  0  0
   -1.2136   -0.5911    0.0000 C   0  0  0  0  0  0  0  0  0  0  0  0
   -0.9587    0.1936    0.0000 C   0  0  1  0  0  0  0  0  0  0  0  0
   -1.4436    0.8610    0.0000 C   0  0  0  0  0  0  0  0  0  0  0  0
   -0.9587    1.5284    0.0000 C   0  0  0  0  0  0  0  0  0  0  0  0
   -0.1741    1.2735    0.0000 C   0  0  0  0  0  0  0  0  0  0  0  0
   -0.1741    0.4485    0.0000 C   0  0  0  0  0  0  0  0  0  0  0  0
    0.6106    0.1936    0.0000 N   0  0  0  0  0  0  0  0  0  0  0  0
    0.8655   -0.5911    0.0000 C   0  0  0  0  0  0  0  0  0  0  0  0
    0.3135   -1.2042    0.0000 C   0  0  0  0  0  0  0  0  0  0  0  0
   -0.4935   -1.0326    0.0000 C   0  0  0  0  0  0  0  0  0  0  0  0
   -1.0455   -1.6457    0.0000 C   0  0  0  0  0  0  0  0  0  0  0  0
   -0.7906   -2.4303    0.0000 C   0  0  0  0  0  0  0  0  0  0  0  0
   -1.3426   -3.0434    0.0000 Cl  0  0  0  0  0  0  0  0  0  0  0  0
    0.0164   -2.6019    0.0000 C   0  0  0  0  0  0  0  0  0  0  0  0
    0.5684   -1.9888    0.0000 C   0  0  0  0  0  0  0  0  0  0  0  0
    1.0955    0.8610    0.0000 C   0  0  0  0  0  0  0  0  0  0  0  0
    1.9160    0.9472    0.0000 C   0  0  0  0  0  0  0  0  0  0  0  0
    2.4009    0.2798    0.0000 Br  0  0  0  0  0  0  0  0  0  0  0  0
    2.2515    1.7009    0.0000 C   0  0  0  0  0  0  0  0  0  0  0  0
    1.7666    2.3683    0.0000 C   0  0  0  0  0  0  0  0  0  0  0  0
    2.1022    3.1220    0.0000 F   0  0  0  0  0  0  0  0  0  0  0  0
    0.9461    2.2821    0.0000 C   0  0  0  0  0  0  0  0  0  0  0  0
    0.6106    1.5284    0.0000 C   0  0  0  0  0  0  0  0  0  0  0  0
  1  2  1  0  0  0  0
  2  3  2  0  0  0  0
  2  4  1  0  0  0  0
  5  4  1  1  0  0  0
  5  6  1  0  0  0  0
  6  7  1  0  0  0  0
  7  8  1  0  0  0  0
  8  9  2  0  0  0  0
  5  9  1  0  0  0  0
  9 10  1  0  0  0  0
 10 11  1  0  0  0  0
 11 12  1  0  0  0  0
 12 13  1  0  0  0  0
 13 14  2  0  0  0  0
 14 15  1  0  0  0  0
 15 16  1  0  0  0  0
 15 17  2  0  0  0  0
 17 18  1  0  0  0  0
 12 18  2  0  0  0  0
 10 19  1  0  0  0  0
 19 20  1  0  0  0  0
 20 21  1  0  0  0  0
 20 22  2  0  0  0  0
 22 23  1  0  0  0  0
 23 24  1  0  0  0  0
 23 25  2  0  0  0  0
 25 26  1  0  0  0  0
  8 26  1  0  0  0  0
 19 26  2  0  0  0  0
M  END
>  <Name>
CHEMBL426387

>  <Target_Uniprot>
P21731

>  <CHEMBL Canonical SMILES>
OC(=O)C[C@H]1CCc2c1n(Cc3ccc(Cl)cc3)c4c(Br)cc(F)cc24

>  <PubMed ID>
17300164

$$$$

  Marvin  08031817322D          

 32 35  0  0  0  0            999 V2000
   -2.1413   -3.3487    0.0000 C   0  0  0  0  0  0  0  0  0  0  0  0
   -1.3675   -3.6279    0.0000 C   0  0  0  0  0  0  0  0  0  0  0  0
   -0.6405   -3.2366    0.0000 C   0  0  0  0  0  0  0  0  0  0  0  0
   -0.1502   -3.9003    0.0000 C   0  0  0  0  0  0  0  0  0  0  0  0
   -1.1409   -2.5812    0.0000 C   0  0  0  0  0  0  0  0  0  0  0  0
   -0.0333   -2.6791    0.0000 N   0  0  0  0  0  0  0  0  0  0  0  0
   -0.0922   -1.8652    0.0000 C   0  0  0  0  0  0  0  0  0  0  0  0
   -0.8414   -1.5382    0.0000 O   0  0  0  0  0  0  0  0  0  0  0  0
    0.6157   -1.4366    0.0000 C   0  0  0  0  0  0  0  0  0  0  0  0
    1.3972   -1.6855    0.0000 C   0  0  0  0  0  0  0  0  0  0  0  0
    1.8861   -1.0142    0.0000 O   0  0  0  0  0  0  0  0  0  0  0  0
    1.4037   -0.3606    0.0000 C   0  0  0  0  0  0  0  0  0  0  0  0
    0.6187   -0.6139    0.0000 N   0  0  0  0  0  0  0  0  0  0  0  0
    1.6374    0.4184    0.0000 C   0  0  0  0  0  0  0  0  0  0  0  0
    2.4471    0.7339    0.0000 C   0  0  0  0  0  0  0  0  0  0  0  0
    3.0326    1.4232    0.0000 C   0  0  0  0  0  0  0  0  0  0  0  0
    2.4790    2.1267    0.0000 C   0  0  0  0  0  0  0  0  0  0  0  0
    1.6525    1.7628    0.0000 C   0  0  0  0  0  0  0  0  0  0  0  0
    2.2830    1.4323    0.0000 O   0  0  0  0  0  0  0  0  0  0  0  0
    1.1331    1.0712    0.0000 C   0  0  0  0  0  0  0  0  0  0  0  0
    0.3199    1.1723    0.0000 C   0  0  0  0  0  0  0  0  0  0  0  0
   -0.0879    1.8406    0.0000 C   0  0  0  0  0  0  0  0  0  0  0  0
    0.3366    2.5542    0.0000 C   0  0  0  0  0  0  0  0  0  0  0  0
   -0.0765    3.2734    0.0000 C   0  0  0  0  0  0  0  0  0  0  0  0
   -0.8834    3.2726    0.0000 C   0  0  0  0  0  0  0  0  0  0  0  0
   -1.2968    2.5447    0.0000 C   0  0  0  0  0  0  0  0  0  0  0  0
   -0.8851    1.8265    0.0000 C   0  0  0  0  0  0  0  0  0  0  0  0
   -1.3469    1.1425    0.0000 C   0  0  0  0  0  0  0  0  0  0  0  0
   -2.1416    0.9818    0.0000 C   0  0  0  0  0  0  0  0  0  0  0  0
   -2.5923    0.3012    0.0000 C   0  0  0  0  0  0  0  0  0  0  0  0
   -2.1152   -0.3658    0.0000 O   0  0  0  0  0  0  0  0  0  0  0  0
   -3.4096    0.3758    0.0000 O   0  0  0  0  0  0  0  0  0  0  0  0
  1  2  1  0  0  0  0
  2  3  1  0  0  0  0
  3  4  1  0  0  0  0
  3  5  1  0  0  0  0
  3  6  1  0  0  0  0
  6  7  1  0  0  0  0
  7  8  2  0  0  0  0
  7  9  1  0  0  0  0
  9 10  2  0  0  0  0
 10 11  1  0  0  0  0
 11 12  1  0  0  0  0
 12 13  2  0  0  0  0
  9 13  1  0  0  0  0
 12 14  1  0  0  0  0
 14 15  1  0  0  0  0
 15 16  1  0  0  0  0
 16 17  1  0  0  0  0
 17 18  1  0  0  0  0
 18 19  1  0  0  0  0
 15 19  1  0  0  0  0
 18 20  1  0  0  0  0
 14 20  1  0  0  0  0
 20 21  1  0  0  0  0
 21 22  1  0  0  0  0
 22 23  1  0  0  0  0
 23 24  2  0  0  0  0
 24 25  1  0  0  0  0
 25 26  2  0  0  0  0
 26 27  1  0  0  0  0
 22 27  2  0  0  0  0
 27 28  1  0  0  0  0
 28 29  1  0  0  0  0
 29 30  1  0  0  0  0
 30 31  2  0  0  0  0
 30 32  1  0  0  0  0
M  END
>  <Name>
CHEMBL281726

>  <Target_Uniprot>
P21731

>  <CHEMBL Canonical SMILES>
CCC(C)(C)NC(=O)c1coc(n1)C2C3CCC(O3)C2Cc4ccccc4CCC(=O)O

>  <PubMed ID>
8496908

$$$$

  Marvin  08031817322D          

 29 30  0  0  0  0            999 V2000
    2.5622   -0.5405    0.0000 C   0  0  0  0  0  0  0  0  0  0  0  0
    2.5622    0.2845    0.0000 C   0  0  0  0  0  0  0  0  0  0  0  0
    3.2767    0.6970    0.0000 C   0  0  0  0  0  0  0  0  0  0  0  0
    3.2767    1.5220    0.0000 C   0  0  0  0  0  0  0  0  0  0  0  0
    2.5622    1.9345    0.0000 C   0  0  0  0  0  0  0  0  0  0  0  0
    1.8478    1.5220    0.0000 C   0  0  0  0  0  0  0  0  0  0  0  0
    1.1333    1.9345    0.0000 C   0  0  0  0  0  0  0  0  0  0  0  0
    1.8478    0.6970    0.0000 C   0  0  0  0  0  0  0  0  0  0  0  0
    1.1333    0.2845    0.0000 N   0  0  0  0  0  0  0  0  0  0  0  0
    0.4188    0.6970    0.0000 C   0  0  0  0  0  0  0  0  0  0  0  0
    0.4188    1.5220    0.0000 C   0  0  0  0  0  0  0  0  0  0  0  0
   -0.2956    1.9345    0.0000 C   0  0  0  0  0  0  0  0  0  0  0  0
   -1.0101    1.5220    0.0000 C   0  0  0  0  0  0  0  0  0  0  0  0
   -1.0101    0.6970    0.0000 C   0  0  0  0  0  0  0  0  0  0  0  0
   -0.2956    0.2845    0.0000 C   0  0  0  0  0  0  0  0  0  0  0  0
   -0.2956   -0.5405    0.0000 S   0  0  0  0  0  0  0  0  0  0  0  0
    0.5294   -0.5405    0.0000 O   0  0  0  0  0  0  0  0  0  0  0  0
   -1.1206   -0.5405    0.0000 O   0  0  0  0  0  0  0  0  0  0  0  0
   -0.2956   -1.3655    0.0000 N   0  0  0  0  0  0  0  0  0  0  0  0
   -1.0101   -1.7780    0.0000 C   0  0  0  0  0  0  0  0  0  0  0  0
   -1.7246   -1.3655    0.0000 O   0  0  0  0  0  0  0  0  0  0  0  0
   -1.0101   -2.6030    0.0000 N   0  0  0  0  0  0  0  0  0  0  0  0
   -1.7246   -3.0155    0.0000 C   0  0  0  0  0  0  0  0  0  0  0  0
   -1.3121   -3.7300    0.0000 C   0  0  0  0  0  0  0  0  0  0  0  0
   -2.1371   -2.3010    0.0000 C   0  0  0  0  0  0  0  0  0  0  0  0
   -2.4391   -3.4280    0.0000 C   0  0  0  0  0  0  0  0  0  0  0  0
   -1.7246    1.9345    0.0000 N   0  3  0  0  0  0  0  0  0  0  0  0
   -2.4391    1.5220    0.0000 O   0  0  0  0  0  0  0  0  0  0  0  0
   -1.7246    2.7595    0.0000 O   0  5  0  0  0  0  0  0  0  0  0  0
  1  2  1  0  0  0  0
  2  3  1  0  0  0  0
  3  4  2  0  0  0  0
  4  5  1  0  0  0  0
  5  6  2  0  0  0  0
  6  7  1  0  0  0  0
  6  8  1  0  0  0  0
  2  8  2  0  0  0  0
  8  9  1  0  0  0  0
  9 10  1  0  0  0  0
 10 11  1  0  0  0  0
 11 12  2  0  0  0  0
 12 13  1  0  0  0  0
 13 14  2  0  0  0  0
 14 15  1  0  0  0  0
 10 15  2  0  0  0  0
 15 16  1  0  0  0  0
 16 17  2  0  0  0  0
 16 18  2  0  0  0  0
 16 19  1  0  0  0  0
 19 20  1  0  0  0  0
 20 21  2  0  0  0  0
 20 22  1  0  0  0  0
 22 23  1  0  0  0  0
 23 24  1  0  0  0  0
 23 25  1  0  0  0  0
 23 26  1  0  0  0  0
 13 27  1  0  0  0  0
 27 28  2  0  0  0  0
 27 29  1  0  0  0  0
M  CHG  2  27   1  29  -1
M  END
>  <Name>
CHEMBL209306

>  <Target_Uniprot>
P21731

>  <CHEMBL Canonical SMILES>
Cc1cccc(C)c1Nc2ccc(cc2S(=O)(=O)NC(=O)NC(C)(C)C)[N+](=O)[O-]

>  <PubMed ID>
16759113

$$$$

  Marvin  08031817322D          

 28 29  0  0  0  0            999 V2000
   -1.1483   -4.9647    0.0000 C   0  0  0  0  0  0  0  0  0  0  0  0
   -1.1483   -4.1397    0.0000 C   0  0  0  0  0  0  0  0  0  0  0  0
   -0.4338   -3.7272    0.0000 C   0  0  0  0  0  0  0  0  0  0  0  0
   -0.4338   -2.9022    0.0000 C   0  0  0  0  0  0  0  0  0  0  0  0
    0.2807   -2.4897    0.0000 N   0  0  0  0  0  0  0  0  0  0  0  0
    0.2807   -1.6647    0.0000 C   0  0  0  0  0  0  0  0  0  0  0  0
   -0.4338   -1.2522    0.0000 O   0  0  0  0  0  0  0  0  0  0  0  0
    0.9952   -1.2522    0.0000 N   0  0  0  0  0  0  0  0  0  0  0  0
    0.9952   -0.4272    0.0000 S   0  0  0  0  0  0  0  0  0  0  0  0
    1.8202   -0.4272    0.0000 O   0  0  0  0  0  0  0  0  0  0  0  0
    0.1702   -0.4272    0.0000 O   0  0  0  0  0  0  0  0  0  0  0  0
    0.9952    0.3978    0.0000 C   0  0  0  0  0  0  0  0  0  0  0  0
    1.7096    0.8103    0.0000 C   0  0  0  0  0  0  0  0  0  0  0  0
    1.7096    1.6353    0.0000 C   0  0  0  0  0  0  0  0  0  0  0  0
    0.9952    2.0478    0.0000 C   0  0  0  0  0  0  0  0  0  0  0  0
    0.2807    1.6353    0.0000 C   0  0  0  0  0  0  0  0  0  0  0  0
    0.2807    0.8103    0.0000 C   0  0  0  0  0  0  0  0  0  0  0  0
   -0.4338    0.3978    0.0000 O   0  0  0  0  0  0  0  0  0  0  0  0
   -1.1483    0.8103    0.0000 C   0  0  0  0  0  0  0  0  0  0  0  0
   -1.1483    1.6353    0.0000 C   0  0  0  0  0  0  0  0  0  0  0  0
   -1.8627    2.0478    0.0000 C   0  0  0  0  0  0  0  0  0  0  0  0
   -2.5772    1.6353    0.0000 C   0  0  0  0  0  0  0  0  0  0  0  0
   -3.2917    2.0478    0.0000 C   0  0  0  0  0  0  0  0  0  0  0  0
   -2.5772    0.8103    0.0000 C   0  0  0  0  0  0  0  0  0  0  0  0
   -1.8627    0.3978    0.0000 C   0  0  0  0  0  0  0  0  0  0  0  0
    2.4241    2.0478    0.0000 N   0  3  0  0  0  0  0  0  0  0  0  0
    2.4241    2.8728    0.0000 O   0  0  0  0  0  0  0  0  0  0  0  0
    3.1386    1.6353    0.0000 O   0  5  0  0  0  0  0  0  0  0  0  0
  1  2  1  0  0  0  0
  2  3  1  0  0  0  0
  3  4  1  0  0  0  0
  4  5  1  0  0  0  0
  5  6  1  0  0  0  0
  6  7  2  0  0  0  0
  6  8  1  0  0  0  0
  8  9  1  0  0  0  0
  9 10  2  0  0  0  0
  9 11  2  0  0  0  0
  9 12  1  0  0  0  0
 12 13  1  0  0  0  0
 13 14  2  0  0  0  0
 14 15  1  0  0  0  0
 15 16  2  0  0  0  0
 16 17  1  0  0  0  0
 12 17  2  0  0  0  0
 17 18  1  0  0  0  0
 18 19  1  0  0  0  0
 19 20  1  0  0  0  0
 20 21  2  0  0  0  0
 21 22  1  0  0  0  0
 22 23  1  0  0  0  0
 22 24  2  0  0  0  0
 24 25  1  0  0  0  0
 19 25  2  0  0  0  0
 14 26  1  0  0  0  0
 26 27  2  0  0  0  0
 26 28  1  0  0  0  0
M  CHG  2  26   1  28  -1
M  END
>  <Name>
CHEMBL209406

>  <Target_Uniprot>
P21731

>  <CHEMBL Canonical SMILES>
CCCCNC(=O)NS(=O)(=O)c1cc(ccc1Oc2ccc(C)cc2)[N+](=O)[O-]

>  <PubMed ID>
16759113

$$$$

  Marvin  08031817322D          

 35 39  0  0  0  0            999 V2000
   -0.3908   -1.8877    0.0000 O   0  0  0  0  0  0  0  0  0  0  0  0
    0.1032   -2.5517    0.0000 C   0  0  0  0  0  0  0  0  0  0  0  0
   -0.0827   -3.3565    0.0000 O   0  0  0  0  0  0  0  0  0  0  0  0
    0.8943   -2.3253    0.0000 C   0  0  0  0  0  0  0  0  0  0  0  0
    1.3059   -1.6210    0.0000 C   0  0  0  0  0  0  0  0  0  0  0  0
    2.0901   -1.4021    0.0000 C   0  0  0  0  0  0  0  0  0  0  0  0
    2.6417   -2.0174    0.0000 C   0  0  0  0  0  0  0  0  0  0  0  0
    3.4537   -1.8487    0.0000 C   0  0  0  0  0  0  0  0  0  0  0  0
    3.7093   -1.0641    0.0000 C   0  0  0  0  0  0  0  0  0  0  0  0
    3.1533   -0.4497    0.0000 C   0  0  0  0  0  0  0  0  0  0  0  0
    2.3448   -0.6249    0.0000 C   0  0  0  0  0  0  0  0  0  0  0  0
    1.8490    0.0102    0.0000 C   0  0  0  0  0  0  0  0  0  0  0  0
    1.9995    0.7733    0.0000 C   0  0  0  0  0  0  0  0  0  0  0  0
    2.8629    0.9614    0.0000 C   0  0  0  0  0  0  0  0  0  0  0  0
    3.4042    1.7720    0.0000 C   0  0  0  0  0  0  0  0  0  0  0  0
    2.8474    2.4796    0.0000 C   0  0  0  0  0  0  0  0  0  0  0  0
    2.1820    2.0414    0.0000 C   0  0  0  0  0  0  0  0  0  0  0  0
    3.0076    1.5647    0.0000 O   0  0  0  0  0  0  0  0  0  0  0  0
    1.5914    1.4771    0.0000 C   0  0  0  0  0  0  0  0  0  0  0  0
    0.7187    1.4638    0.0000 C   0  0  0  0  0  0  0  0  0  0  0  0
    0.2266    2.1341    0.0000 O   0  0  0  0  0  0  0  0  0  0  0  0
   -0.5596    1.8788    0.0000 C   0  0  0  0  0  0  0  0  0  0  0  0
   -0.5597    1.0538    0.0000 C   0  0  0  0  0  0  0  0  0  0  0  0
    0.2234    0.7951    0.0000 N   0  0  0  0  0  0  0  0  0  0  0  0
   -1.1657    0.5081    0.0000 C   0  0  0  0  0  0  0  0  0  0  0  0
   -1.1518   -0.3108    0.0000 O   0  0  0  0  0  0  0  0  0  0  0  0
   -1.9215    0.8229    0.0000 N   0  0  0  0  0  0  0  0  0  0  0  0
   -2.6613    0.4794    0.0000 C   0  0  0  0  0  0  0  0  0  0  0  0
   -3.4397    0.6832    0.0000 C   0  0  0  0  0  0  0  0  0  0  0  0
   -4.1147    0.2477    0.0000 C   0  0  0  0  0  0  0  0  0  0  0  0
   -4.8643    0.5803    0.0000 C   0  0  0  0  0  0  0  0  0  0  0  0
   -5.5361    0.0937    0.0000 C   0  0  0  0  0  0  0  0  0  0  0  0
   -5.4471   -0.7287    0.0000 C   0  0  0  0  0  0  0  0  0  0  0  0
   -4.6905   -1.0622    0.0000 C   0  0  0  0  0  0  0  0  0  0  0  0
   -4.0234   -0.5695    0.0000 C   0  0  0  0  0  0  0  0  0  0  0  0
  1  2  1  0  0  0  0
  2  3  2  0  0  0  0
  2  4  1  0  0  0  0
  4  5  1  0  0  0  0
  5  6  1  0  0  0  0
  6  7  1  0  0  0  0
  7  8  2  0  0  0  0
  8  9  1  0  0  0  0
  9 10  2  0  0  0  0
 10 11  1  0  0  0  0
  6 11  2  0  0  0  0
 11 12  1  0  0  0  0
 12 13  1  0  0  0  0
 13 14  1  0  0  0  0
 14 15  1  0  0  0  0
 15 16  1  0  0  0  0
 16 17  1  0  0  0  0
 17 18  1  0  0  0  0
 14 18  1  0  0  0  0
 17 19  1  0  0  0  0
 13 19  1  0  0  0  0
 19 20  1  0  0  0  0
 20 21  1  0  0  0  0
 21 22  1  0  0  0  0
 22 23  2  0  0  0  0
 23 24  1  0  0  0  0
 20 24  2  0  0  0  0
 23 25  1  0  0  0  0
 25 26  2  0  0  0  0
 25 27  1  0  0  0  0
 27 28  1  0  0  0  0
 28 29  1  0  0  0  0
 29 30  1  0  0  0  0
 30 31  1  0  0  0  0
 31 32  1  0  0  0  0
 32 33  1  0  0  0  0
 33 34  1  0  0  0  0
 34 35  1  0  0  0  0
 30 35  1  0  0  0  0
M  END
>  <Name>
CHEMBL31922

>  <Target_Uniprot>
P21731

>  <CHEMBL Canonical SMILES>
OC(=O)CCc1ccccc1CC2C3CCC(O3)C2c4occ(n4)C(=O)NCCC5CCCCC5

>  <PubMed ID>
8496908

$$$$

  Marvin  08031817322D          

 35 39  0  0  0  0            999 V2000
   -0.3908   -1.8877    0.0000 O   0  0  0  0  0  0  0  0  0  0  0  0
    0.1032   -2.5517    0.0000 C   0  0  0  0  0  0  0  0  0  0  0  0
   -0.0827   -3.3565    0.0000 O   0  0  0  0  0  0  0  0  0  0  0  0
    0.8943   -2.3253    0.0000 C   0  0  0  0  0  0  0  0  0  0  0  0
    1.3059   -1.6210    0.0000 C   0  0  0  0  0  0  0  0  0  0  0  0
    2.0901   -1.4021    0.0000 C   0  0  0  0  0  0  0  0  0  0  0  0
    2.6417   -2.0174    0.0000 C   0  0  0  0  0  0  0  0  0  0  0  0
    3.4537   -1.8487    0.0000 C   0  0  0  0  0  0  0  0  0  0  0  0
    3.7093   -1.0641    0.0000 C   0  0  0  0  0  0  0  0  0  0  0  0
    3.1533   -0.4497    0.0000 C   0  0  0  0  0  0  0  0  0  0  0  0
    2.3448   -0.6249    0.0000 C   0  0  0  0  0  0  0  0  0  0  0  0
    1.8490    0.0102    0.0000 C   0  0  0  0  0  0  0  0  0  0  0  0
    1.9995    0.7733    0.0000 C   0  0  0  0  0  0  0  0  0  0  0  0
    2.8629    0.9614    0.0000 C   0  0  0  0  0  0  0  0  0  0  0  0
    3.4042    1.7720    0.0000 C   0  0  0  0  0  0  0  0  0  0  0  0
    2.8474    2.4796    0.0000 C   0  0  0  0  0  0  0  0  0  0  0  0
    2.1820    2.0414    0.0000 C   0  0  0  0  0  0  0  0  0  0  0  0
    3.0076    1.5647    0.0000 O   0  0  0  0  0  0  0  0  0  0  0  0
    1.5914    1.4771    0.0000 C   0  0  0  0  0  0  0  0  0  0  0  0
    0.7187    1.4638    0.0000 C   0  0  0  0  0  0  0  0  0  0  0  0
    0.2266    2.1341    0.0000 O   0  0  0  0  0  0  0  0  0  0  0  0
   -0.5596    1.8788    0.0000 C   0  0  0  0  0  0  0  0  0  0  0  0
   -0.5597    1.0538    0.0000 C   0  0  0  0  0  0  0  0  0  0  0  0
    0.2234    0.7951    0.0000 N   0  0  0  0  0  0  0  0  0  0  0  0
   -1.1657    0.5081    0.0000 C   0  0  0  0  0  0  0  0  0  0  0  0
   -1.1518   -0.3108    0.0000 O   0  0  0  0  0  0  0  0  0  0  0  0
   -1.9215    0.8229    0.0000 N   0  0  0  0  0  0  0  0  0  0  0  0
   -2.6613    0.4794    0.0000 C   0  0  0  0  0  0  0  0  0  0  0  0
   -3.4397    0.6832    0.0000 C   0  0  0  0  0  0  0  0  0  0  0  0
   -4.1147    0.2477    0.0000 C   0  0  0  0  0  0  0  0  0  0  0  0
   -4.8643    0.5803    0.0000 C   0  0  0  0  0  0  0  0  0  0  0  0
   -5.5361    0.0937    0.0000 C   0  0  0  0  0  0  0  0  0  0  0  0
   -5.4471   -0.7287    0.0000 C   0  0  0  0  0  0  0  0  0  0  0  0
   -4.6905   -1.0622    0.0000 C   0  0  0  0  0  0  0  0  0  0  0  0
   -4.0234   -0.5695    0.0000 C   0  0  0  0  0  0  0  0  0  0  0  0
  1  2  1  0  0  0  0
  2  3  2  0  0  0  0
  2  4  1  0  0  0  0
  4  5  1  0  0  0  0
  5  6  1  0  0  0  0
  6  7  1  0  0  0  0
  7  8  2  0  0  0  0
  8  9  1  0  0  0  0
  9 10  2  0  0  0  0
 10 11  1  0  0  0  0
  6 11  2  0  0  0  0
 11 12  1  0  0  0  0
 12 13  1  0  0  0  0
 13 14  1  0  0  0  0
 14 15  1  0  0  0  0
 15 16  1  0  0  0  0
 16 17  1  0  0  0  0
 17 18  1  0  0  0  0
 14 18  1  0  0  0  0
 17 19  1  0  0  0  0
 13 19  1  0  0  0  0
 19 20  1  0  0  0  0
 20 21  1  0  0  0  0
 21 22  1  0  0  0  0
 22 23  2  0  0  0  0
 23 24  1  0  0  0  0
 20 24  2  0  0  0  0
 23 25  1  0  0  0  0
 25 26  2  0  0  0  0
 25 27  1  0  0  0  0
 27 28  1  0  0  0  0
 28 29  1  0  0  0  0
 29 30  1  0  0  0  0
 30 31  1  0  0  0  0
 31 32  2  0  0  0  0
 32 33  1  0  0  0  0
 33 34  2  0  0  0  0
 34 35  1  0  0  0  0
 30 35  2  0  0  0  0
M  END
>  <Name>
CHEMBL410732

>  <Target_Uniprot>
P21731

>  <CHEMBL Canonical SMILES>
OC(=O)CCc1ccccc1CC2C3CCC(O3)C2c4occ(n4)C(=O)NCCc5ccccc5

>  <PubMed ID>
8496908

$$$$

  Marvin  08031817322D          

 29 31  0  0  0  0            999 V2000
    3.7695   -2.3185    0.0000 C   0  0  0  0  0  0  0  0  0  0  0  0
    3.0550   -1.9060    0.0000 C   0  0  0  0  0  0  0  0  0  0  0  0
    3.0550   -1.0810    0.0000 C   0  0  0  0  0  0  0  0  0  0  0  0
    2.3405   -0.6685    0.0000 C   0  0  0  0  0  0  0  0  0  0  0  0
    1.6260   -1.0810    0.0000 C   0  0  0  0  0  0  0  0  0  0  0  0
    0.9116   -0.6685    0.0000 N   0  0  0  0  0  0  0  0  0  0  0  0
    0.9116    0.1565    0.0000 C   0  0  0  0  0  0  0  0  0  0  0  0
    1.6260    0.5690    0.0000 C   0  0  0  0  0  0  0  0  0  0  0  0
    1.6260    1.3940    0.0000 C   0  0  0  0  0  0  0  0  0  0  0  0
    0.9116    1.8065    0.0000 C   0  0  0  0  0  0  0  0  0  0  0  0
    0.1971    1.3940    0.0000 C   0  0  0  0  0  0  0  0  0  0  0  0
    0.1971    0.5690    0.0000 C   0  0  0  0  0  0  0  0  0  0  0  0
   -0.5174    0.1565    0.0000 S   0  0  0  0  0  0  0  0  0  0  0  0
   -0.1049   -0.5580    0.0000 O   0  0  0  0  0  0  0  0  0  0  0  0
   -0.9299    0.8709    0.0000 O   0  0  0  0  0  0  0  0  0  0  0  0
   -1.2318   -0.2560    0.0000 N   0  0  0  0  0  0  0  0  0  0  0  0
   -1.9463    0.1565    0.0000 C   0  0  0  0  0  0  0  0  0  0  0  0
   -1.9463    0.9815    0.0000 O   0  0  0  0  0  0  0  0  0  0  0  0
   -2.6608   -0.2560    0.0000 N   0  0  0  0  0  0  0  0  0  0  0  0
   -3.3753    0.1565    0.0000 C   0  0  0  0  0  0  0  0  0  0  0  0
   -4.0897   -0.2560    0.0000 C   0  0  0  0  0  0  0  0  0  0  0  0
   -4.0897   -1.0810    0.0000 C   0  0  0  0  0  0  0  0  0  0  0  0
   -3.3753   -1.4935    0.0000 C   0  0  0  0  0  0  0  0  0  0  0  0
   -2.6608   -1.0810    0.0000 C   0  0  0  0  0  0  0  0  0  0  0  0
    0.9116    2.6315    0.0000 N   0  3  0  0  0  0  0  0  0  0  0  0
    0.1971    3.0440    0.0000 O   0  0  0  0  0  0  0  0  0  0  0  0
    1.6260    3.0440    0.0000 O   0  5  0  0  0  0  0  0  0  0  0  0
    1.6260   -1.9060    0.0000 C   0  0  0  0  0  0  0  0  0  0  0  0
    2.3405   -2.3185    0.0000 C   0  0  0  0  0  0  0  0  0  0  0  0
  1  2  1  0  0  0  0
  2  3  1  0  0  0  0
  3  4  2  0  0  0  0
  4  5  1  0  0  0  0
  5  6  1  0  0  0  0
  6  7  1  0  0  0  0
  7  8  1  0  0  0  0
  8  9  2  0  0  0  0
  9 10  1  0  0  0  0
 10 11  2  0  0  0  0
 11 12  1  0  0  0  0
  7 12  2  0  0  0  0
 12 13  1  0  0  0  0
 13 14  2  0  0  0  0
 13 15  2  0  0  0  0
 13 16  1  0  0  0  0
 16 17  1  0  0  0  0
 17 18  2  0  0  0  0
 17 19  1  0  0  0  0
 19 20  1  0  0  0  0
 20 21  1  0  0  0  0
 21 22  1  0  0  0  0
 22 23  1  0  0  0  0
 23 24  1  0  0  0  0
 19 24  1  0  0  0  0
 10 25  1  0  0  0  0
 25 26  2  0  0  0  0
 25 27  1  0  0  0  0
  5 28  2  0  0  0  0
 28 29  1  0  0  0  0
  2 29  2  0  0  0  0
M  CHG  2  25   1  27  -1
M  END
>  <Name>
CHEMBL209168

>  <Target_Uniprot>
P21731

>  <CHEMBL Canonical SMILES>
Cc1ccc(Nc2ccc(cc2S(=O)(=O)NC(=O)N3CCCCC3)[N+](=O)[O-])cc1

>  <PubMed ID>
16759113

$$$$

  Marvin  08031817322D          

 35 38  0  0  0  0            999 V2000
   -1.1332   -5.8255    0.0000 C   0  0  0  0  0  0  0  0  0  0  0  0
   -1.6778   -5.2058    0.0000 C   0  0  0  0  0  0  0  0  0  0  0  0
   -2.0970   -4.4952    0.0000 C   0  0  0  0  0  0  0  0  0  0  0  0
   -2.3425   -5.6960    0.0000 C   0  0  0  0  0  0  0  0  0  0  0  0
   -1.0123   -4.7173    0.0000 C   0  0  0  0  0  0  0  0  0  0  0  0
   -1.0014   -3.8979    0.0000 C   0  0  0  0  0  0  0  0  0  0  0  0
   -0.3944   -3.3502    0.0000 C   0  0  0  0  0  0  0  0  0  0  0  0
   -0.3930   -2.5346    0.0000 C   0  0  0  0  0  0  0  0  0  0  0  0
    0.2016   -1.9751    0.0000 N   0  0  0  0  0  0  0  0  0  0  0  0
    0.0821   -1.1590    0.0000 C   0  0  0  0  0  0  0  0  0  0  0  0
   -0.7065   -0.8907    0.0000 O   0  0  0  0  0  0  0  0  0  0  0  0
    0.8137   -0.7666    0.0000 C   0  0  0  0  0  0  0  0  0  0  0  0
    1.6003   -1.0176    0.0000 C   0  0  0  0  0  0  0  0  0  0  0  0
    2.0757   -0.3553    0.0000 O   0  0  0  0  0  0  0  0  0  0  0  0
    1.5949    0.3304    0.0000 C   0  0  0  0  0  0  0  0  0  0  0  0
    0.8121    0.0567    0.0000 N   0  0  0  0  0  0  0  0  0  0  0  0
    1.8647    1.2005    0.0000 C   0  0  0  0  0  0  0  0  0  0  0  0
    2.5526    1.6290    0.0000 C   0  0  0  0  0  0  0  0  0  0  0  0
    3.1574    2.1314    0.0000 C   0  0  0  0  0  0  0  0  0  0  0  0
    2.6393    2.8289    0.0000 C   0  0  0  0  0  0  0  0  0  0  0  0
    1.7007    2.5631    0.0000 C   0  0  0  0  0  0  0  0  0  0  0  0
    2.3085    2.5368    0.0000 O   0  0  0  0  0  0  0  0  0  0  0  0
    1.2861    1.7829    0.0000 C   0  0  0  0  0  0  0  0  0  0  0  0
    0.4802    1.8019    0.0000 C   0  0  0  0  0  0  0  0  0  0  0  0
    0.1198    2.5171    0.0000 C   0  0  0  0  0  0  0  0  0  0  0  0
    0.5311    3.2156    0.0000 C   0  0  0  0  0  0  0  0  0  0  0  0
    0.1221    3.9180    0.0000 C   0  0  0  0  0  0  0  0  0  0  0  0
   -0.7111    3.9177    0.0000 C   0  0  0  0  0  0  0  0  0  0  0  0
   -1.1211    3.2129    0.0000 C   0  0  0  0  0  0  0  0  0  0  0  0
   -0.7130    2.5061    0.0000 C   0  0  0  0  0  0  0  0  0  0  0  0
   -1.1498    1.8035    0.0000 C   0  0  0  0  0  0  0  0  0  0  0  0
   -1.9606    1.6426    0.0000 C   0  0  0  0  0  0  0  0  0  0  0  0
   -2.4001    0.9560    0.0000 C   0  0  0  0  0  0  0  0  0  0  0  0
   -1.9185    0.2974    0.0000 O   0  0  0  0  0  0  0  0  0  0  0  0
   -3.2110    1.0379    0.0000 O   0  0  0  0  0  0  0  0  0  0  0  0
  1  2  1  0  0  0  0
  2  3  1  0  0  0  0
  2  4  1  0  0  0  0
  2  5  1  0  0  0  0
  5  6  1  0  0  0  0
  6  7  1  0  0  0  0
  7  8  1  0  0  0  0
  8  9  1  0  0  0  0
  9 10  1  0  0  0  0
 10 11  2  0  0  0  0
 10 12  1  0  0  0  0
 12 13  2  0  0  0  0
 13 14  1  0  0  0  0
 14 15  1  0  0  0  0
 15 16  2  0  0  0  0
 12 16  1  0  0  0  0
 15 17  1  0  0  0  0
 17 18  1  0  0  0  0
 18 19  1  0  0  0  0
 19 20  1  0  0  0  0
 20 21  1  0  0  0  0
 21 22  1  0  0  0  0
 18 22  1  0  0  0  0
 21 23  1  0  0  0  0
 17 23  1  0  0  0  0
 23 24  1  0  0  0  0
 24 25  1  0  0  0  0
 25 26  1  0  0  0  0
 26 27  2  0  0  0  0
 27 28  1  0  0  0  0
 28 29  2  0  0  0  0
 29 30  1  0  0  0  0
 25 30  2  0  0  0  0
 30 31  1  0  0  0  0
 31 32  1  0  0  0  0
 32 33  1  0  0  0  0
 33 34  2  0  0  0  0
 33 35  1  0  0  0  0
M  END
>  <Name>
CHEMBL30972

>  <Target_Uniprot>
P21731

>  <CHEMBL Canonical SMILES>
CC(C)(C)CCCCNC(=O)c1coc(n1)C2C3CCC(O3)C2Cc4ccccc4CCC(=O)O

>  <PubMed ID>
8496908

$$$$

  Marvin  08031817322D          

 38 42  0  0  0  0            999 V2000
    0.2668   -1.8551    0.0000 O   0  0  0  0  0  0  0  0  0  0  0  0
    0.7623   -2.5223    0.0000 C   0  0  0  0  0  0  0  0  0  0  0  0
    0.5759   -3.3313    0.0000 O   0  0  0  0  0  0  0  0  0  0  0  0
    1.5559   -2.2967    0.0000 C   0  0  0  0  0  0  0  0  0  0  0  0
    1.9657   -1.5890    0.0000 C   0  0  0  0  0  0  0  0  0  0  0  0
    2.7551   -1.3691    0.0000 C   0  0  0  0  0  0  0  0  0  0  0  0
    3.3092   -1.9866    0.0000 C   0  0  0  0  0  0  0  0  0  0  0  0
    4.1236   -1.8165    0.0000 C   0  0  0  0  0  0  0  0  0  0  0  0
    4.3797   -1.0302    0.0000 C   0  0  0  0  0  0  0  0  0  0  0  0
    3.8227   -0.4135    0.0000 C   0  0  0  0  0  0  0  0  0  0  0  0
    3.0115   -0.5892    0.0000 C   0  0  0  0  0  0  0  0  0  0  0  0
    2.5116    0.0457    0.0000 C   0  0  0  0  0  0  0  0  0  0  0  0
    2.6653    0.8112    0.0000 C   0  0  0  0  0  0  0  0  0  0  0  0
    3.5344    0.9974    0.0000 C   0  0  0  0  0  0  0  0  0  0  0  0
    4.0763    1.8139    0.0000 C   0  0  0  0  0  0  0  0  0  0  0  0
    3.5199    2.5231    0.0000 C   0  0  0  0  0  0  0  0  0  0  0  0
    2.8535    2.0820    0.0000 C   0  0  0  0  0  0  0  0  0  0  0  0
    3.6796    1.6027    0.0000 O   0  0  0  0  0  0  0  0  0  0  0  0
    2.2588    1.5178    0.0000 C   0  0  0  0  0  0  0  0  0  0  0  0
    1.3808    1.5057    0.0000 C   0  0  0  0  0  0  0  0  0  0  0  0
    0.8865    2.1781    0.0000 O   0  0  0  0  0  0  0  0  0  0  0  0
    0.0978    1.9228    0.0000 C   0  0  0  0  0  0  0  0  0  0  0  0
    0.0985    1.0959    0.0000 C   0  0  0  0  0  0  0  0  0  0  0  0
    0.8835    0.8354    0.0000 N   0  0  0  0  0  0  0  0  0  0  0  0
   -0.4994    0.5412    0.0000 C   0  0  0  0  0  0  0  0  0  0  0  0
   -0.4961   -0.2784    0.0000 O   0  0  0  0  0  0  0  0  0  0  0  0
   -1.2456    0.8776    0.0000 N   0  0  0  0  0  0  0  0  0  0  0  0
   -1.9772    0.5039    0.0000 C   0  0  0  0  0  0  0  0  0  0  0  0
   -2.7640    0.7386    0.0000 C   0  0  0  0  0  0  0  0  0  0  0  0
   -3.4759    0.3411    0.0000 C   0  0  0  0  0  0  0  0  0  0  0  0
   -4.2401    0.5873    0.0000 C   0  0  0  0  0  0  0  0  0  0  0  0
   -4.8986    0.1342    0.0000 C   0  0  0  0  0  0  0  0  0  0  0  0
   -5.6498    0.4705    0.0000 C   0  0  0  0  0  0  0  0  0  0  0  0
   -6.3223   -0.0181    0.0000 C   0  0  0  0  0  0  0  0  0  0  0  0
   -6.2310   -0.8417    0.0000 C   0  0  0  0  0  0  0  0  0  0  0  0
   -6.8968   -1.3260    0.0000 O   0  0  0  0  0  0  0  0  0  0  0  0
   -5.4736   -1.1778    0.0000 C   0  0  0  0  0  0  0  0  0  0  0  0
   -4.8046   -0.6848    0.0000 C   0  0  0  0  0  0  0  0  0  0  0  0
  1  2  1  0  0  0  0
  2  3  2  0  0  0  0
  2  4  1  0  0  0  0
  4  5  1  0  0  0  0
  5  6  1  0  0  0  0
  6  7  1  0  0  0  0
  7  8  2  0  0  0  0
  8  9  1  0  0  0  0
  9 10  2  0  0  0  0
 10 11  1  0  0  0  0
  6 11  2  0  0  0  0
 11 12  1  0  0  0  0
 12 13  1  0  0  0  0
 13 14  1  0  0  0  0
 14 15  1  0  0  0  0
 15 16  1  0  0  0  0
 16 17  1  0  0  0  0
 17 18  1  0  0  0  0
 14 18  1  0  0  0  0
 17 19  1  0  0  0  0
 13 19  1  0  0  0  0
 19 20  1  0  0  0  0
 20 21  1  0  0  0  0
 21 22  1  0  0  0  0
 22 23  2  0  0  0  0
 23 24  1  0  0  0  0
 20 24  2  0  0  0  0
 23 25  1  0  0  0  0
 25 26  2  0  0  0  0
 25 27  1  0  0  0  0
 27 28  1  0  0  0  0
 28 29  1  0  0  0  0
 29 30  1  0  0  0  0
 30 31  1  0  0  0  0
 31 32  1  0  0  0  0
 32 33  1  0  0  0  0
 33 34  2  0  0  0  0
 34 35  1  0  0  0  0
 35 36  1  0  0  0  0
 35 37  2  0  0  0  0
 37 38  1  0  0  0  0
 32 38  2  0  0  0  0
M  END
>  <Name>
CHEMBL29429

>  <Target_Uniprot>
P21731

>  <CHEMBL Canonical SMILES>
OC(=O)CCc1ccccc1CC2C3CCC(O3)C2c4occ(n4)C(=O)NCCCCc5ccc(O)cc5

>  <PubMed ID>
8496908

$$$$

  Marvin  08031817322D          

 33 36  0  0  1  0            999 V2000
   -0.1964   -2.0724    0.0000 O   0  0  0  0  0  0  0  0  0  0  0  0
    0.3556   -2.6855    0.0000 C   0  0  0  0  0  0  0  0  0  0  0  0
    0.1007   -3.4701    0.0000 O   0  0  0  0  0  0  0  0  0  0  0  0
    1.1626   -2.5139    0.0000 C   0  0  0  0  0  0  0  0  0  0  0  0
    1.4175   -1.7293    0.0000 C   0  0  0  0  0  0  0  0  0  0  0  0
    2.2245   -1.5578    0.0000 C   0  0  0  0  0  0  0  0  0  0  0  0
    2.7765   -2.1709    0.0000 C   0  0  0  0  0  0  0  0  0  0  0  0
    3.5835   -1.9994    0.0000 C   0  0  0  0  0  0  0  0  0  0  0  0
    3.8384   -1.2147    0.0000 C   0  0  0  0  0  0  0  0  0  0  0  0
    3.2864   -0.6017    0.0000 C   0  0  0  0  0  0  0  0  0  0  0  0
    2.4794   -0.7732    0.0000 C   0  0  0  0  0  0  0  0  0  0  0  0
    1.9274   -0.1601    0.0000 C   0  0  0  0  0  0  0  0  0  0  0  0
    2.1823    0.6245    0.0000 C   0  0  2  0  0  0  0  0  0  0  0  0
    2.9670    0.8795    0.0000 C   0  0  0  0  0  0  0  0  0  0  0  0
    2.9670    1.7045    0.0000 C   0  0  0  0  0  0  0  0  0  0  0  0
    2.1823    1.9594    0.0000 C   0  0  0  0  0  0  0  0  0  0  0  0
    1.6974    1.2920    0.0000 C   0  0  1  0  0  0  0  0  0  0  0  0
    0.8724    1.2920    0.0000 C   0  0  0  0  0  0  0  0  0  0  0  0
    0.3875    1.9594    0.0000 O   0  0  0  0  0  0  0  0  0  0  0  0
   -0.3971    1.7045    0.0000 C   0  0  0  0  0  0  0  0  0  0  0  0
   -0.3971    0.8795    0.0000 C   0  0  0  0  0  0  0  0  0  0  0  0
    0.3875    0.6245    0.0000 N   0  0  0  0  0  0  0  0  0  0  0  0
   -1.0646    0.3946    0.0000 C   0  0  0  0  0  0  0  0  0  0  0  0
   -0.9783   -0.4259    0.0000 O   0  0  0  0  0  0  0  0  0  0  0  0
   -1.8182    0.7301    0.0000 N   0  0  0  0  0  0  0  0  0  0  0  0
   -2.4857    0.2452    0.0000 C   0  0  0  0  0  0  0  0  0  0  0  0
   -3.2394    0.5807    0.0000 C   0  0  0  0  0  0  0  0  0  0  0  0
   -3.3256    1.4012    0.0000 C   0  0  0  0  0  0  0  0  0  0  0  0
   -4.0793    1.7368    0.0000 C   0  0  0  0  0  0  0  0  0  0  0  0
   -4.7467    1.2519    0.0000 C   0  0  0  0  0  0  0  0  0  0  0  0
   -5.5004    1.5874    0.0000 Cl  0  0  0  0  0  0  0  0  0  0  0  0
   -4.6605    0.4314    0.0000 C   0  0  0  0  0  0  0  0  0  0  0  0
   -3.9068    0.0958    0.0000 C   0  0  0  0  0  0  0  0  0  0  0  0
  1  2  1  0  0  0  0
  2  3  2  0  0  0  0
  2  4  1  0  0  0  0
  4  5  1  0  0  0  0
  5  6  1  0  0  0  0
  6  7  1  0  0  0  0
  7  8  2  0  0  0  0
  8  9  1  0  0  0  0
  9 10  2  0  0  0  0
 10 11  1  0  0  0  0
  6 11  2  0  0  0  0
 11 12  1  0  0  0  0
 13 12  1  1  0  0  0
 13 14  1  0  0  0  0
 14 15  1  0  0  0  0
 15 16  1  0  0  0  0
 16 17  1  0  0  0  0
 13 17  1  0  0  0  0
 17 18  1  6  0  0  0
 18 19  1  0  0  0  0
 19 20  1  0  0  0  0
 20 21  2  0  0  0  0
 21 22  1  0  0  0  0
 18 22  2  0  0  0  0
 21 23  1  0  0  0  0
 23 24  2  0  0  0  0
 23 25  1  0  0  0  0
 25 26  1  0  0  0  0
 26 27  1  0  0  0  0
 27 28  1  0  0  0  0
 28 29  2  0  0  0  0
 29 30  1  0  0  0  0
 30 31  1  0  0  0  0
 30 32  2  0  0  0  0
 32 33  1  0  0  0  0
 27 33  2  0  0  0  0
M  END
>  <Name>
CHEMBL25657

>  <Target_Uniprot>
P21731

>  <CHEMBL Canonical SMILES>
OC(=O)CCc1ccccc1C[C@@H]2CCC[C@H]2c3occ(n3)C(=O)NCc4ccc(Cl)cc4

$$$$

  Marvin  08031817322D          

 24 25  0  0  0  0            999 V2000
   -5.1240   -1.4203    0.0000 C   0  0  0  0  0  0  0  0  0  0  0  0
   -4.3105   -1.2824    0.0000 C   0  0  0  0  0  0  0  0  0  0  0  0
   -3.6804   -1.8150    0.0000 C   0  0  0  0  0  0  0  0  0  0  0  0
   -2.8633   -1.7009    0.0000 C   0  0  0  0  0  0  0  0  0  0  0  0
   -2.5730   -0.9290    0.0000 C   0  0  0  0  0  0  0  0  0  0  0  0
   -1.7826   -0.7084    0.0000 C   0  0  0  0  0  0  0  0  0  0  0  0
   -1.4982    0.0520    0.0000 S   0  0  0  0  0  0  0  0  0  0  0  0
   -0.7081    0.2303    0.0000 C   0  0  0  0  0  0  0  0  0  0  0  0
   -0.3995    0.9914    0.0000 C   0  0  0  0  0  0  0  0  0  0  0  0
    0.3581    1.2975    0.0000 C   0  0  0  0  0  0  0  0  0  0  0  0
    1.0051    0.7975    0.0000 C   0  0  0  0  0  0  0  0  0  0  0  0
    1.7446    1.1162    0.0000 C   0  0  0  0  0  0  0  0  0  0  0  0
    2.4079    0.6489    0.0000 C   0  0  0  0  0  0  0  0  0  0  0  0
    2.3714   -0.1718    0.0000 C   0  0  0  0  0  0  0  0  0  0  0  0
    2.9790   -0.7296    0.0000 C   0  0  0  0  0  0  0  0  0  0  0  0
    3.0158   -1.5537    0.0000 C   0  0  0  0  0  0  0  0  0  0  0  0
    3.6752   -2.0497    0.0000 C   0  0  0  0  0  0  0  0  0  0  0  0
    4.3782   -1.6180    0.0000 O   0  0  0  0  0  0  0  0  0  0  0  0
    3.4884   -2.8534    0.0000 O   0  0  0  0  0  0  0  0  0  0  0  0
    0.2486    2.1831    0.0000 C   0  0  0  0  0  0  0  0  0  0  0  0
   -0.2625    2.9607    0.0000 C   0  0  0  0  0  0  0  0  0  0  0  0
   -1.0864    2.6360    0.0000 C   0  0  0  0  0  0  0  0  0  0  0  0
   -0.9321    1.7122    0.0000 C   0  0  0  0  0  0  0  0  0  0  0  0
   -0.4516    2.2065    0.0000 O   0  0  0  0  0  0  0  0  0  0  0  0
  1  2  1  0  0  0  0
  2  3  1  0  0  0  0
  3  4  2  0  0  0  0
  4  5  1  0  0  0  0
  5  6  1  0  0  0  0
  6  7  1  0  0  0  0
  7  8  1  0  0  0  0
  8  9  1  0  0  0  0
  9 10  1  0  0  0  0
 10 11  1  0  0  0  0
 11 12  1  0  0  0  0
 12 13  2  0  0  0  0
 13 14  1  0  0  0  0
 14 15  1  0  0  0  0
 15 16  1  0  0  0  0
 16 17  1  0  0  0  0
 17 18  2  0  0  0  0
 17 19  1  0  0  0  0
 10 20  1  0  0  0  0
 20 21  1  0  0  0  0
 21 22  1  0  0  0  0
 22 23  1  0  0  0  0
  9 23  1  0  0  0  0
 23 24  1  0  0  0  0
 20 24  1  0  0  0  0
M  END
>  <Name>
CHEMBL2096756

>  <Target_Uniprot>
P21731

>  <CHEMBL Canonical SMILES>
CC\C=C/CCSCC1C(C\C=C/CCCC(=O)O)C2CCC1O2

>  <PubMed ID>
2523485

$$$$

  Marvin  08031817322D          

 39 43  0  0  0  0            999 V2000
   -3.1841   -6.8684    0.0000 C   0  0  0  0  0  0  0  0  0  0  0  0
   -3.2157   -6.0385    0.0000 O   0  0  0  0  0  0  0  0  0  0  0  0
   -2.6216   -5.4575    0.0000 C   0  0  0  0  0  0  0  0  0  0  0  0
   -1.8709   -5.8019    0.0000 C   0  0  0  0  0  0  0  0  0  0  0  0
   -1.2062   -5.3257    0.0000 C   0  0  0  0  0  0  0  0  0  0  0  0
   -1.2855   -4.5061    0.0000 C   0  0  0  0  0  0  0  0  0  0  0  0
   -0.6137   -4.0295    0.0000 C   0  0  0  0  0  0  0  0  0  0  0  0
   -0.6772   -3.1954    0.0000 C   0  0  0  0  0  0  0  0  0  0  0  0
   -0.0315   -2.6667    0.0000 C   0  0  0  0  0  0  0  0  0  0  0  0
   -0.0549   -1.8422    0.0000 C   0  0  0  0  0  0  0  0  0  0  0  0
    0.5509   -1.2845    0.0000 N   0  0  0  0  0  0  0  0  0  0  0  0
    0.4297   -0.4678    0.0000 C   0  0  0  0  0  0  0  0  0  0  0  0
   -0.3555   -0.2123    0.0000 O   0  0  0  0  0  0  0  0  0  0  0  0
    1.1627   -0.0822    0.0000 C   0  0  0  0  0  0  0  0  0  0  0  0
    1.9414   -0.3324    0.0000 C   0  0  0  0  0  0  0  0  0  0  0  0
    2.4248    0.3329    0.0000 O   0  0  0  0  0  0  0  0  0  0  0  0
    1.9479    1.0246    0.0000 C   0  0  0  0  0  0  0  0  0  0  0  0
    1.1614    0.7411    0.0000 N   0  0  0  0  0  0  0  0  0  0  0  0
    2.2241    1.9040    0.0000 C   0  0  0  0  0  0  0  0  0  0  0  0
    2.9261    2.3203    0.0000 C   0  0  0  0  0  0  0  0  0  0  0  0
    3.4985    2.8292    0.0000 C   0  0  0  0  0  0  0  0  0  0  0  0
    2.9852    3.5692    0.0000 C   0  0  0  0  0  0  0  0  0  0  0  0
    2.0708    3.2751    0.0000 C   0  0  0  0  0  0  0  0  0  0  0  0
    2.6999    3.2550    0.0000 O   0  0  0  0  0  0  0  0  0  0  0  0
    1.6635    2.4931    0.0000 C   0  0  0  0  0  0  0  0  0  0  0  0
    0.8689    2.4737    0.0000 C   0  0  0  0  0  0  0  0  0  0  0  0
    0.4614    3.1980    0.0000 C   0  0  0  0  0  0  0  0  0  0  0  0
    0.8664    3.9152    0.0000 C   0  0  0  0  0  0  0  0  0  0  0  0
    0.4566    4.6289    0.0000 C   0  0  0  0  0  0  0  0  0  0  0  0
   -0.3721    4.6293    0.0000 C   0  0  0  0  0  0  0  0  0  0  0  0
   -0.7793    3.9172    0.0000 C   0  0  0  0  0  0  0  0  0  0  0  0
   -0.3687    3.2066    0.0000 C   0  0  0  0  0  0  0  0  0  0  0  0
   -0.8053    2.5045    0.0000 C   0  0  0  0  0  0  0  0  0  0  0  0
   -1.6169    2.3397    0.0000 C   0  0  0  0  0  0  0  0  0  0  0  0
   -2.0710    1.6442    0.0000 C   0  0  0  0  0  0  0  0  0  0  0  0
   -1.5813    0.9785    0.0000 O   0  0  0  0  0  0  0  0  0  0  0  0
   -2.8931    1.7298    0.0000 O   0  0  0  0  0  0  0  0  0  0  0  0
   -2.0346   -4.1628    0.0000 C   0  0  0  0  0  0  0  0  0  0  0  0
   -2.7012   -4.6364    0.0000 C   0  0  0  0  0  0  0  0  0  0  0  0
  1  2  1  0  0  0  0
  2  3  1  0  0  0  0
  3  4  1  0  0  0  0
  4  5  2  0  0  0  0
  5  6  1  0  0  0  0
  6  7  1  0  0  0  0
  7  8  1  0  0  0  0
  8  9  1  0  0  0  0
  9 10  1  0  0  0  0
 10 11  1  0  0  0  0
 11 12  1  0  0  0  0
 12 13  2  0  0  0  0
 12 14  1  0  0  0  0
 14 15  2  0  0  0  0
 15 16  1  0  0  0  0
 16 17  1  0  0  0  0
 17 18  2  0  0  0  0
 14 18  1  0  0  0  0
 17 19  1  0  0  0  0
 19 20  1  0  0  0  0
 20 21  1  0  0  0  0
 21 22  1  0  0  0  0
 22 23  1  0  0  0  0
 23 24  1  0  0  0  0
 20 24  1  0  0  0  0
 23 25  1  0  0  0  0
 19 25  1  0  0  0  0
 25 26  1  0  0  0  0
 26 27  1  0  0  0  0
 27 28  1  0  0  0  0
 28 29  2  0  0  0  0
 29 30  1  0  0  0  0
 30 31  2  0  0  0  0
 31 32  1  0  0  0  0
 27 32  2  0  0  0  0
 32 33  1  0  0  0  0
 33 34  1  0  0  0  0
 34 35  1  0  0  0  0
 35 36  2  0  0  0  0
 35 37  1  0  0  0  0
  6 38  2  0  0  0  0
 38 39  1  0  0  0  0
  3 39  2  0  0  0  0
M  END
>  <Name>
CHEMBL281959

>  <Target_Uniprot>
P21731

>  <CHEMBL Canonical SMILES>
COc1ccc(CCCCNC(=O)c2coc(n2)C3C4CCC(O4)C3Cc5ccccc5CCC(=O)O)cc1

>  <PubMed ID>
8496908

$$$$

  Marvin  08031817322D          

 37 41  0  0  0  0            999 V2000
    0.0806   -1.8908    0.0000 O   0  0  0  0  0  0  0  0  0  0  0  0
    0.5761   -2.5580    0.0000 C   0  0  0  0  0  0  0  0  0  0  0  0
    0.3898   -3.3670    0.0000 O   0  0  0  0  0  0  0  0  0  0  0  0
    1.3697   -2.3324    0.0000 C   0  0  0  0  0  0  0  0  0  0  0  0
    1.7795   -1.6247    0.0000 C   0  0  0  0  0  0  0  0  0  0  0  0
    2.5690   -1.4048    0.0000 C   0  0  0  0  0  0  0  0  0  0  0  0
    3.1231   -2.0222    0.0000 C   0  0  0  0  0  0  0  0  0  0  0  0
    3.9374   -1.8522    0.0000 C   0  0  0  0  0  0  0  0  0  0  0  0
    4.1935   -1.0659    0.0000 C   0  0  0  0  0  0  0  0  0  0  0  0
    3.6366   -0.4492    0.0000 C   0  0  0  0  0  0  0  0  0  0  0  0
    2.8253   -0.6249    0.0000 C   0  0  0  0  0  0  0  0  0  0  0  0
    2.3255    0.0102    0.0000 C   0  0  0  0  0  0  0  0  0  0  0  0
    2.4790    0.7755    0.0000 C   0  0  0  0  0  0  0  0  0  0  0  0
    3.3482    0.9618    0.0000 C   0  0  0  0  0  0  0  0  0  0  0  0
    3.8901    1.7783    0.0000 C   0  0  0  0  0  0  0  0  0  0  0  0
    3.3336    2.4875    0.0000 C   0  0  0  0  0  0  0  0  0  0  0  0
    2.6671    2.0463    0.0000 C   0  0  0  0  0  0  0  0  0  0  0  0
    3.4933    1.5670    0.0000 O   0  0  0  0  0  0  0  0  0  0  0  0
    2.0726    1.4821    0.0000 C   0  0  0  0  0  0  0  0  0  0  0  0
    1.1947    1.4700    0.0000 C   0  0  0  0  0  0  0  0  0  0  0  0
    0.7004    2.1424    0.0000 O   0  0  0  0  0  0  0  0  0  0  0  0
   -0.0884    1.8870    0.0000 C   0  0  0  0  0  0  0  0  0  0  0  0
   -0.0877    1.0603    0.0000 C   0  0  0  0  0  0  0  0  0  0  0  0
    0.6974    0.7997    0.0000 N   0  0  0  0  0  0  0  0  0  0  0  0
   -0.6856    0.5054    0.0000 C   0  0  0  0  0  0  0  0  0  0  0  0
   -0.6822   -0.3140    0.0000 O   0  0  0  0  0  0  0  0  0  0  0  0
   -1.4318    0.8419    0.0000 N   0  0  0  0  0  0  0  0  0  0  0  0
   -2.1633    0.4683    0.0000 C   0  0  0  0  0  0  0  0  0  0  0  0
   -2.9502    0.7029    0.0000 C   0  0  0  0  0  0  0  0  0  0  0  0
   -3.6621    0.3054    0.0000 C   0  0  0  0  0  0  0  0  0  0  0  0
   -4.4266    0.5514    0.0000 C   0  0  0  0  0  0  0  0  0  0  0  0
   -5.0856    0.0978    0.0000 C   0  0  0  0  0  0  0  0  0  0  0  0
   -5.8363    0.4339    0.0000 C   0  0  0  0  0  0  0  0  0  0  0  0
   -6.5095   -0.0550    0.0000 C   0  0  0  0  0  0  0  0  0  0  0  0
   -6.4203   -0.8796    0.0000 C   0  0  0  0  0  0  0  0  0  0  0  0
   -5.6612   -1.2141    0.0000 C   0  0  0  0  0  0  0  0  0  0  0  0
   -4.9917   -0.7206    0.0000 C   0  0  0  0  0  0  0  0  0  0  0  0
  1  2  1  0  0  0  0
  2  3  2  0  0  0  0
  2  4  1  0  0  0  0
  4  5  1  0  0  0  0
  5  6  1  0  0  0  0
  6  7  1  0  0  0  0
  7  8  2  0  0  0  0
  8  9  1  0  0  0  0
  9 10  2  0  0  0  0
 10 11  1  0  0  0  0
  6 11  2  0  0  0  0
 11 12  1  0  0  0  0
 12 13  1  0  0  0  0
 13 14  1  0  0  0  0
 14 15  1  0  0  0  0
 15 16  1  0  0  0  0
 16 17  1  0  0  0  0
 17 18  1  0  0  0  0
 14 18  1  0  0  0  0
 17 19  1  0  0  0  0
 13 19  1  0  0  0  0
 19 20  1  0  0  0  0
 20 21  1  0  0  0  0
 21 22  1  0  0  0  0
 22 23  2  0  0  0  0
 23 24  1  0  0  0  0
 20 24  2  0  0  0  0
 23 25  1  0  0  0  0
 25 26  2  0  0  0  0
 25 27  1  0  0  0  0
 27 28  1  0  0  0  0
 28 29  1  0  0  0  0
 29 30  1  0  0  0  0
 30 31  1  0  0  0  0
 31 32  1  0  0  0  0
 32 33  1  0  0  0  0
 33 34  2  0  0  0  0
 34 35  1  0  0  0  0
 35 36  2  0  0  0  0
 36 37  1  0  0  0  0
 32 37  2  0  0  0  0
M  END
>  <Name>
CHEMBL283923

>  <Target_Uniprot>
P21731

>  <CHEMBL Canonical SMILES>
OC(=O)CCc1ccccc1CC2C3CCC(O3)C2c4occ(n4)C(=O)NCCCCc5ccccc5

>  <PubMed ID>
8496908

$$$$

  Marvin  08031817322D          

 34 37  0  0  0  0            999 V2000
   -4.0856   -5.6994    0.0000 C   0  0  0  0  0  0  0  0  0  0  0  0
   -3.4286   -5.2024    0.0000 C   0  0  0  0  0  0  0  0  0  0  0  0
   -3.3906   -4.3781    0.0000 C   0  0  0  0  0  0  0  0  0  0  0  0
   -2.7723   -3.8304    0.0000 C   0  0  0  0  0  0  0  0  0  0  0  0
   -2.8056   -3.0061    0.0000 C   0  0  0  0  0  0  0  0  0  0  0  0
   -2.1670   -2.4882    0.0000 C   0  0  0  0  0  0  0  0  0  0  0  0
   -2.2036   -1.6696    0.0000 C   0  0  0  0  0  0  0  0  0  0  0  0
   -1.5694   -1.1458    0.0000 N   0  0  0  0  0  0  0  0  0  0  0  0
   -1.8246   -0.3497    0.0000 C   0  0  0  0  0  0  0  0  0  0  0  0
   -2.5836    0.0043    0.0000 O   0  0  0  0  0  0  0  0  0  0  0  0
   -1.1277    0.1187    0.0000 C   0  0  0  0  0  0  0  0  0  0  0  0
   -0.3492   -0.1455    0.0000 C   0  0  0  0  0  0  0  0  0  0  0  0
    0.1406    0.5144    0.0000 O   0  0  0  0  0  0  0  0  0  0  0  0
   -0.3305    1.1793    0.0000 C   0  0  0  0  0  0  0  0  0  0  0  0
   -1.1090    0.9485    0.0000 N   0  0  0  0  0  0  0  0  0  0  0  0
   -0.0090    1.8863    0.0000 C   0  0  0  0  0  0  0  0  0  0  0  0
    0.7020    2.2714    0.0000 C   0  0  0  0  0  0  0  0  0  0  0  0
    1.3918    1.6862    0.0000 C   0  0  0  0  0  0  0  0  0  0  0  0
    1.5365    0.8444    0.0000 C   0  0  0  0  0  0  0  0  0  0  0  0
    0.7810    0.5319    0.0000 C   0  0  0  0  0  0  0  0  0  0  0  0
    0.6613   -0.2888    0.0000 C   0  0  0  0  0  0  0  0  0  0  0  0
    1.3013   -0.7920    0.0000 C   0  0  0  0  0  0  0  0  0  0  0  0
    2.0636   -0.4853    0.0000 C   0  0  0  0  0  0  0  0  0  0  0  0
    2.1836    0.3351    0.0000 C   0  0  0  0  0  0  0  0  0  0  0  0
    2.9055    0.7561    0.0000 C   0  0  0  0  0  0  0  0  0  0  0  0
    3.6062    0.3066    0.0000 C   0  0  0  0  0  0  0  0  0  0  0  0
    4.3573    0.6512    0.0000 C   0  0  0  0  0  0  0  0  0  0  0  0
    4.3208    1.4720    0.0000 O   0  0  0  0  0  0  0  0  0  0  0  0
    4.9482    0.0803    0.0000 O   0  0  0  0  0  0  0  0  0  0  0  0
    0.4831    3.0603    0.0000 C   0  0  0  0  0  0  0  0  0  0  0  0
    0.1682    3.7750    0.0000 C   0  0  0  0  0  0  0  0  0  0  0  0
   -0.6664    3.4758    0.0000 C   0  0  0  0  0  0  0  0  0  0  0  0
   -0.6572    2.4970    0.0000 C   0  0  0  0  0  0  0  0  0  0  0  0
   -0.4713    3.0870    0.0000 O   0  0  0  0  0  0  0  0  0  0  0  0
  1  2  1  0  0  0  0
  2  3  1  0  0  0  0
  3  4  1  0  0  0  0
  4  5  1  0  0  0  0
  5  6  1  0  0  0  0
  6  7  1  0  0  0  0
  7  8  1  0  0  0  0
  8  9  1  0  0  0  0
  9 10  2  0  0  0  0
  9 11  1  0  0  0  0
 11 12  2  0  0  0  0
 12 13  1  0  0  0  0
 13 14  1  0  0  0  0
 14 15  2  0  0  0  0
 11 15  1  0  0  0  0
 14 16  1  0  0  0  0
 16 17  1  0  0  0  0
 17 18  1  0  0  0  0
 18 19  1  0  0  0  0
 19 20  1  0  0  0  0
 20 21  2  0  0  0  0
 21 22  1  0  0  0  0
 22 23  2  0  0  0  0
 23 24  1  0  0  0  0
 19 24  2  0  0  0  0
 24 25  1  0  0  0  0
 25 26  1  0  0  0  0
 26 27  1  0  0  0  0
 27 28  2  0  0  0  0
 27 29  1  0  0  0  0
 17 30  1  0  0  0  0
 30 31  1  0  0  0  0
 31 32  1  0  0  0  0
 32 33  1  0  0  0  0
 16 33  1  0  0  0  0
 33 34  1  0  0  0  0
 30 34  1  0  0  0  0
M  END
>  <Name>
CHEMBL30743

>  <Target_Uniprot>
P21731

>  <CHEMBL Canonical SMILES>
CCCCCCCNC(=O)c1coc(n1)C2C(Cc3ccccc3CCC(=O)O)C4CCC2O4

>  <PubMed ID>
8496908

$$$$

  Marvin  08031817322D          

 38 42  0  0  0  0            999 V2000
    0.2668   -1.8551    0.0000 O   0  0  0  0  0  0  0  0  0  0  0  0
    0.7623   -2.5223    0.0000 C   0  0  0  0  0  0  0  0  0  0  0  0
    0.5759   -3.3313    0.0000 O   0  0  0  0  0  0  0  0  0  0  0  0
    1.5559   -2.2967    0.0000 C   0  0  0  0  0  0  0  0  0  0  0  0
    1.9657   -1.5890    0.0000 C   0  0  0  0  0  0  0  0  0  0  0  0
    2.7551   -1.3691    0.0000 C   0  0  0  0  0  0  0  0  0  0  0  0
    3.3092   -1.9866    0.0000 C   0  0  0  0  0  0  0  0  0  0  0  0
    4.1236   -1.8165    0.0000 C   0  0  0  0  0  0  0  0  0  0  0  0
    4.3797   -1.0302    0.0000 C   0  0  0  0  0  0  0  0  0  0  0  0
    3.8227   -0.4135    0.0000 C   0  0  0  0  0  0  0  0  0  0  0  0
    3.0115   -0.5892    0.0000 C   0  0  0  0  0  0  0  0  0  0  0  0
    2.5116    0.0457    0.0000 C   0  0  0  0  0  0  0  0  0  0  0  0
    2.6653    0.8112    0.0000 C   0  0  0  0  0  0  0  0  0  0  0  0
    3.5344    0.9974    0.0000 C   0  0  0  0  0  0  0  0  0  0  0  0
    4.0763    1.8139    0.0000 C   0  0  0  0  0  0  0  0  0  0  0  0
    3.5199    2.5231    0.0000 C   0  0  0  0  0  0  0  0  0  0  0  0
    2.8535    2.0820    0.0000 C   0  0  0  0  0  0  0  0  0  0  0  0
    3.6796    1.6027    0.0000 O   0  0  0  0  0  0  0  0  0  0  0  0
    2.2588    1.5178    0.0000 C   0  0  0  0  0  0  0  0  0  0  0  0
    1.3808    1.5057    0.0000 C   0  0  0  0  0  0  0  0  0  0  0  0
    0.8865    2.1781    0.0000 O   0  0  0  0  0  0  0  0  0  0  0  0
    0.0978    1.9228    0.0000 C   0  0  0  0  0  0  0  0  0  0  0  0
    0.0985    1.0959    0.0000 C   0  0  0  0  0  0  0  0  0  0  0  0
    0.8835    0.8354    0.0000 N   0  0  0  0  0  0  0  0  0  0  0  0
   -0.4994    0.5412    0.0000 C   0  0  0  0  0  0  0  0  0  0  0  0
   -0.4961   -0.2784    0.0000 O   0  0  0  0  0  0  0  0  0  0  0  0
   -1.2456    0.8776    0.0000 N   0  0  0  0  0  0  0  0  0  0  0  0
   -1.9772    0.5039    0.0000 C   0  0  0  0  0  0  0  0  0  0  0  0
   -2.7640    0.7386    0.0000 C   0  0  0  0  0  0  0  0  0  0  0  0
   -3.4759    0.3411    0.0000 C   0  0  0  0  0  0  0  0  0  0  0  0
   -4.2401    0.5873    0.0000 C   0  0  0  0  0  0  0  0  0  0  0  0
   -4.8986    0.1342    0.0000 C   0  0  0  0  0  0  0  0  0  0  0  0
   -5.6498    0.4705    0.0000 C   0  0  0  0  0  0  0  0  0  0  0  0
   -6.3223   -0.0181    0.0000 C   0  0  0  0  0  0  0  0  0  0  0  0
   -6.2310   -0.8417    0.0000 C   0  0  0  0  0  0  0  0  0  0  0  0
   -6.8968   -1.3260    0.0000 Cl  0  0  0  0  0  0  0  0  0  0  0  0
   -5.4736   -1.1778    0.0000 C   0  0  0  0  0  0  0  0  0  0  0  0
   -4.8046   -0.6848    0.0000 C   0  0  0  0  0  0  0  0  0  0  0  0
  1  2  1  0  0  0  0
  2  3  2  0  0  0  0
  2  4  1  0  0  0  0
  4  5  1  0  0  0  0
  5  6  1  0  0  0  0
  6  7  1  0  0  0  0
  7  8  2  0  0  0  0
  8  9  1  0  0  0  0
  9 10  2  0  0  0  0
 10 11  1  0  0  0  0
  6 11  2  0  0  0  0
 11 12  1  0  0  0  0
 12 13  1  0  0  0  0
 13 14  1  0  0  0  0
 14 15  1  0  0  0  0
 15 16  1  0  0  0  0
 16 17  1  0  0  0  0
 17 18  1  0  0  0  0
 14 18  1  0  0  0  0
 17 19  1  0  0  0  0
 13 19  1  0  0  0  0
 19 20  1  0  0  0  0
 20 21  1  0  0  0  0
 21 22  1  0  0  0  0
 22 23  2  0  0  0  0
 23 24  1  0  0  0  0
 20 24  2  0  0  0  0
 23 25  1  0  0  0  0
 25 26  2  0  0  0  0
 25 27  1  0  0  0  0
 27 28  1  0  0  0  0
 28 29  1  0  0  0  0
 29 30  1  0  0  0  0
 30 31  1  0  0  0  0
 31 32  1  0  0  0  0
 32 33  1  0  0  0  0
 33 34  2  0  0  0  0
 34 35  1  0  0  0  0
 35 36  1  0  0  0  0
 35 37  2  0  0  0  0
 37 38  1  0  0  0  0
 32 38  2  0  0  0  0
M  END
>  <Name>
CHEMBL30615

>  <Target_Uniprot>
P21731

>  <CHEMBL Canonical SMILES>
OC(=O)CCc1ccccc1CC2C3CCC(O3)C2c4occ(n4)C(=O)NCCCCc5ccc(Cl)cc5

>  <PubMed ID>
8496908

$$$$

  Marvin  08031817322D          

 30 33  0  0  1  0            999 V2000
    2.6598   -4.6405    0.0000 O   0  0  0  0  0  0  0  0  0  0  0  0
    1.8488   -4.4876    0.0000 C   0  0  0  0  0  0  0  0  0  0  0  0
    1.1681   -4.9544    0.0000 O   0  0  0  0  0  0  0  0  0  0  0  0
    1.6938   -3.6771    0.0000 C   0  0  0  0  0  0  0  0  0  0  0  0
    2.2229   -3.0444    0.0000 C   0  0  0  0  0  0  0  0  0  0  0  0
    2.1461   -2.2234    0.0000 C   0  0  0  0  0  0  0  0  0  0  0  0
    2.7323   -1.6405    0.0000 C   0  0  0  0  0  0  0  0  0  0  0  0
    2.5288   -0.8298    0.0000 C   0  0  0  0  0  0  0  0  0  0  0  0
    1.7626   -0.4466    0.0000 C   0  0  0  0  0  0  0  0  0  0  0  0
    1.5688    0.4450    0.0000 C   0  0  1  0  0  0  0  0  0  0  0  0
    1.9685    1.1618    0.0000 C   0  0  2  0  0  0  0  0  0  0  0  0
    2.2311    1.8998    0.0000 C   0  0  0  0  0  0  0  0  0  0  0  0
    1.4193    2.2806    0.0000 C   0  0  0  0  0  0  0  0  0  0  0  0
    0.7643    1.5621    0.0000 C   0  0  1  0  0  0  0  0  0  0  0  0
    1.3209    1.8559    0.0000 C   0  0  0  0  0  0  0  0  0  0  0  0
    0.7875    0.6716    0.0000 C   0  0  2  0  0  0  0  0  0  0  0  0
    0.1362    0.1915    0.0000 N   0  0  0  0  0  0  0  0  0  0  0  0
   -0.5940    0.5685    0.0000 S   0  0  0  0  0  0  0  0  0  0  0  0
   -0.9893   -0.1594    0.0000 O   0  0  0  0  0  0  0  0  0  0  0  0
   -0.1980    1.2953    0.0000 O   0  0  0  0  0  0  0  0  0  0  0  0
   -1.2920    1.0047    0.0000 C   0  0  0  0  0  0  0  0  0  0  0  0
   -1.2903    1.8299    0.0000 C   0  0  0  0  0  0  0  0  0  0  0  0
   -2.0035    2.2421    0.0000 C   0  0  0  0  0  0  0  0  0  0  0  0
   -2.7176    1.8297    0.0000 C   0  0  0  0  0  0  0  0  0  0  0  0
   -3.4300    2.2424    0.0000 C   0  0  0  0  0  0  0  0  0  0  0  0
   -4.1449    1.8306    0.0000 C   0  0  0  0  0  0  0  0  0  0  0  0
   -4.1458    1.0051    0.0000 C   0  0  0  0  0  0  0  0  0  0  0  0
   -3.4321    0.5919    0.0000 C   0  0  0  0  0  0  0  0  0  0  0  0
   -2.7176    1.0039    0.0000 C   0  0  0  0  0  0  0  0  0  0  0  0
   -2.0048    0.5913    0.0000 C   0  0  0  0  0  0  0  0  0  0  0  0
  1  2  1  0  0  0  0
  2  3  2  0  0  0  0
  2  4  1  0  0  0  0
  4  5  1  0  0  0  0
  5  6  1  0  0  0  0
  6  7  1  0  0  0  0
  7  8  2  0  0  0  0
  8  9  1  0  0  0  0
 10  9  1  6  0  0  0
 10 11  1  0  0  0  0
 11 12  1  0  0  0  0
 12 13  1  0  0  0  0
 13 14  1  0  0  0  0
 14 15  1  6  0  0  0
 11 15  1  6  0  0  0
 14 16  1  0  0  0  0
 10 16  1  0  0  0  0
 16 17  1  1  0  0  0
 17 18  1  0  0  0  0
 18 19  2  0  0  0  0
 18 20  2  0  0  0  0
 18 21  1  0  0  0  0
 21 22  1  0  0  0  0
 22 23  2  0  0  0  0
 23 24  1  0  0  0  0
 24 25  1  0  0  0  0
 25 26  2  0  0  0  0
 26 27  1  0  0  0  0
 27 28  2  0  0  0  0
 28 29  1  0  0  0  0
 24 29  2  0  0  0  0
 29 30  1  0  0  0  0
 21 30  2  0  0  0  0
M  END
>  <Name>
CHEMBL435382

>  <Target_Uniprot>
P21731

>  <CHEMBL Canonical SMILES>
OC(=O)CCC\C=C/C[C@H]1[C@@H]2CC[C@@H](C2)[C@@H]1NS(=O)(=O)c3ccc4ccccc4c3

>  <PubMed ID>
9357516

$$$$

  Marvin  08031817322D          

 37 41  0  0  0  0            999 V2000
    0.0806   -1.8908    0.0000 O   0  0  0  0  0  0  0  0  0  0  0  0
    0.5761   -2.5580    0.0000 C   0  0  0  0  0  0  0  0  0  0  0  0
    0.3898   -3.3670    0.0000 O   0  0  0  0  0  0  0  0  0  0  0  0
    1.3697   -2.3324    0.0000 C   0  0  0  0  0  0  0  0  0  0  0  0
    1.7795   -1.6247    0.0000 C   0  0  0  0  0  0  0  0  0  0  0  0
    2.5690   -1.4048    0.0000 C   0  0  0  0  0  0  0  0  0  0  0  0
    3.1231   -2.0222    0.0000 C   0  0  0  0  0  0  0  0  0  0  0  0
    3.9374   -1.8522    0.0000 C   0  0  0  0  0  0  0  0  0  0  0  0
    4.1935   -1.0659    0.0000 C   0  0  0  0  0  0  0  0  0  0  0  0
    3.6366   -0.4492    0.0000 C   0  0  0  0  0  0  0  0  0  0  0  0
    2.8253   -0.6249    0.0000 C   0  0  0  0  0  0  0  0  0  0  0  0
    2.3255    0.0102    0.0000 C   0  0  0  0  0  0  0  0  0  0  0  0
    2.4790    0.7755    0.0000 C   0  0  0  0  0  0  0  0  0  0  0  0
    3.3482    0.9618    0.0000 C   0  0  0  0  0  0  0  0  0  0  0  0
    3.8901    1.7783    0.0000 C   0  0  0  0  0  0  0  0  0  0  0  0
    3.3336    2.4875    0.0000 C   0  0  0  0  0  0  0  0  0  0  0  0
    2.6671    2.0463    0.0000 C   0  0  0  0  0  0  0  0  0  0  0  0
    3.4933    1.5670    0.0000 O   0  0  0  0  0  0  0  0  0  0  0  0
    2.0726    1.4821    0.0000 C   0  0  0  0  0  0  0  0  0  0  0  0
    1.1947    1.4700    0.0000 C   0  0  0  0  0  0  0  0  0  0  0  0
    0.7004    2.1424    0.0000 O   0  0  0  0  0  0  0  0  0  0  0  0
   -0.0884    1.8870    0.0000 C   0  0  0  0  0  0  0  0  0  0  0  0
   -0.0877    1.0603    0.0000 C   0  0  0  0  0  0  0  0  0  0  0  0
    0.6974    0.7997    0.0000 N   0  0  0  0  0  0  0  0  0  0  0  0
   -0.6856    0.5054    0.0000 C   0  0  0  0  0  0  0  0  0  0  0  0
   -0.6822   -0.3140    0.0000 O   0  0  0  0  0  0  0  0  0  0  0  0
   -1.4318    0.8419    0.0000 N   0  0  0  0  0  0  0  0  0  0  0  0
   -2.1633    0.4683    0.0000 C   0  0  0  0  0  0  0  0  0  0  0  0
   -2.9502    0.7029    0.0000 C   0  0  0  0  0  0  0  0  0  0  0  0
   -3.6621    0.3054    0.0000 C   0  0  0  0  0  0  0  0  0  0  0  0
   -4.4266    0.5514    0.0000 C   0  0  0  0  0  0  0  0  0  0  0  0
   -5.0856    0.0978    0.0000 C   0  0  0  0  0  0  0  0  0  0  0  0
   -5.8363    0.4339    0.0000 C   0  0  0  0  0  0  0  0  0  0  0  0
   -6.5095   -0.0550    0.0000 C   0  0  0  0  0  0  0  0  0  0  0  0
   -6.4203   -0.8796    0.0000 C   0  0  0  0  0  0  0  0  0  0  0  0
   -5.6612   -1.2141    0.0000 C   0  0  0  0  0  0  0  0  0  0  0  0
   -4.9917   -0.7206    0.0000 C   0  0  0  0  0  0  0  0  0  0  0  0
  1  2  1  0  0  0  0
  2  3  2  0  0  0  0
  2  4  1  0  0  0  0
  4  5  1  0  0  0  0
  5  6  1  0  0  0  0
  6  7  1  0  0  0  0
  7  8  2  0  0  0  0
  8  9  1  0  0  0  0
  9 10  2  0  0  0  0
 10 11  1  0  0  0  0
  6 11  2  0  0  0  0
 11 12  1  0  0  0  0
 12 13  1  0  0  0  0
 13 14  1  0  0  0  0
 14 15  1  0  0  0  0
 15 16  1  0  0  0  0
 16 17  1  0  0  0  0
 17 18  1  0  0  0  0
 14 18  1  0  0  0  0
 17 19  1  0  0  0  0
 13 19  1  0  0  0  0
 19 20  1  0  0  0  0
 20 21  1  0  0  0  0
 21 22  1  0  0  0  0
 22 23  2  0  0  0  0
 23 24  1  0  0  0  0
 20 24  2  0  0  0  0
 23 25  1  0  0  0  0
 25 26  2  0  0  0  0
 25 27  1  0  0  0  0
 27 28  1  0  0  0  0
 28 29  1  0  0  0  0
 29 30  1  0  0  0  0
 30 31  1  0  0  0  0
 31 32  1  0  0  0  0
 32 33  1  0  0  0  0
 33 34  1  0  0  0  0
 34 35  1  0  0  0  0
 35 36  1  0  0  0  0
 36 37  1  0  0  0  0
 32 37  1  0  0  0  0
M  END
>  <Name>
CHEMBL31765

>  <Target_Uniprot>
P21731

>  <CHEMBL Canonical SMILES>
OC(=O)CCc1ccccc1CC2C3CCC(O3)C2c4occ(n4)C(=O)NCCCCC5CCCCC5

$$$$

  Marvin  08031817322D          

 37 41  0  0  0  0            999 V2000
    4.0014   -5.3858    0.0000 C   0  0  0  0  0  0  0  0  0  0  0  0
    3.1810   -5.2996    0.0000 O   0  0  0  0  0  0  0  0  0  0  0  0
    2.8454   -4.5459    0.0000 C   0  0  0  0  0  0  0  0  0  0  0  0
    3.3303   -3.8785    0.0000 C   0  0  0  0  0  0  0  0  0  0  0  0
    2.9948   -3.1248    0.0000 C   0  0  0  0  0  0  0  0  0  0  0  0
    2.1743   -3.0385    0.0000 C   0  0  0  0  0  0  0  0  0  0  0  0
    1.6894   -3.7060    0.0000 C   0  0  0  0  0  0  0  0  0  0  0  0
    2.0249   -4.4597    0.0000 C   0  0  0  0  0  0  0  0  0  0  0  0
    1.8387   -2.2849    0.0000 C   0  0  0  0  0  0  0  0  0  0  0  0
    2.2512   -1.5704    0.0000 C   0  0  0  0  0  0  0  0  0  0  0  0
    3.0717   -1.4842    0.0000 O   0  0  0  0  0  0  0  0  0  0  0  0
    1.6992   -0.9573    0.0000 C   0  0  0  0  0  0  0  0  0  0  0  0
    0.9455   -1.2929    0.0000 C   0  0  0  0  0  0  0  0  0  0  0  0
    0.2311   -0.8804    0.0000 C   0  0  0  0  0  0  0  0  0  0  0  0
    0.2311   -0.0554    0.0000 C   0  0  0  0  0  0  0  0  0  0  0  0
    0.9455    0.3571    0.0000 C   0  0  0  0  0  0  0  0  0  0  0  0
    0.9455    1.1821    0.0000 C   0  0  0  0  0  0  0  0  0  0  0  0
    0.2311    1.5946    0.0000 C   0  0  0  0  0  0  0  0  0  0  0  0
   -0.4834    1.1821    0.0000 C   0  0  0  0  0  0  0  0  0  0  0  0
   -1.1979    1.5946    0.0000 C   0  0  0  0  0  0  0  0  0  0  0  0
   -1.9124    1.1821    0.0000 C   0  0  0  0  0  0  0  0  0  0  0  0
   -1.9124    0.3571    0.0000 C   0  0  0  0  0  0  0  0  0  0  0  0
   -1.1979   -0.0554    0.0000 C   0  0  0  0  0  0  0  0  0  0  0  0
   -0.4834    0.3571    0.0000 C   0  0  0  0  0  0  0  0  0  0  0  0
   -2.6268    1.5946    0.0000 N   0  0  0  0  0  0  0  0  0  0  0  0
   -2.6268    2.4196    0.0000 S   0  0  0  0  0  0  0  0  0  0  0  0
   -3.4518    2.4196    0.0000 O   0  0  0  0  0  0  0  0  0  0  0  0
   -1.8018    2.4196    0.0000 O   0  0  0  0  0  0  0  0  0  0  0  0
   -2.6268    3.2446    0.0000 C   0  0  0  0  0  0  0  0  0  0  0  0
   -1.9124    3.6571    0.0000 C   0  0  0  0  0  0  0  0  0  0  0  0
   -1.9124    4.4821    0.0000 C   0  0  0  0  0  0  0  0  0  0  0  0
   -2.6268    4.8946    0.0000 C   0  0  0  0  0  0  0  0  0  0  0  0
   -2.6268    5.7196    0.0000 Cl  0  0  0  0  0  0  0  0  0  0  0  0
   -3.3413    4.4821    0.0000 C   0  0  0  0  0  0  0  0  0  0  0  0
   -3.3413    3.6571    0.0000 C   0  0  0  0  0  0  0  0  0  0  0  0
    1.0318   -2.1133    0.0000 C   0  0  0  0  0  0  0  0  0  0  0  0
    0.4187   -2.6654    0.0000 O   0  0  0  0  0  0  0  0  0  0  0  0
  1  2  1  0  0  0  0
  2  3  1  0  0  0  0
  3  4  1  0  0  0  0
  4  5  2  0  0  0  0
  5  6  1  0  0  0  0
  6  7  2  0  0  0  0
  7  8  1  0  0  0  0
  3  8  2  0  0  0  0
  6  9  1  0  0  0  0
  9 10  2  0  0  0  0
 10 11  1  0  0  0  0
 10 12  1  0  0  0  0
 12 13  1  0  0  0  0
 13 14  1  0  0  0  0
 14 15  1  0  0  0  0
 15 16  1  0  0  0  0
 16 17  2  0  0  0  0
 17 18  1  0  0  0  0
 18 19  2  0  0  0  0
 19 20  1  0  0  0  0
 20 21  1  0  0  0  0
 21 22  1  0  0  0  0
 22 23  1  0  0  0  0
 23 24  1  0  0  0  0
 15 24  2  0  0  0  0
 19 24  1  0  0  0  0
 21 25  1  0  0  0  0
 25 26  1  0  0  0  0
 26 27  2  0  0  0  0
 26 28  2  0  0  0  0
 26 29  1  0  0  0  0
 29 30  1  0  0  0  0
 30 31  2  0  0  0  0
 31 32  1  0  0  0  0
 32 33  1  0  0  0  0
 32 34  2  0  0  0  0
 34 35  1  0  0  0  0
 29 35  2  0  0  0  0
 13 36  1  0  0  0  0
  9 36  1  0  0  0  0
 36 37  2  0  0  0  0
M  END
>  <Name>
CHEMBL3354616

>  <Target_Uniprot>
P21731

>  <CHEMBL Canonical SMILES>
COc1ccc(cc1)C2=C(O)CC(Cc3cccc4CC(CCc34)NS(=O)(=O)c5ccc(Cl)cc5)C2=O

>  <PubMed ID>
25221659

$$$$

  Marvin  08031817322D          

 37 41  0  0  0  0            999 V2000
    0.0807   -1.8937    0.0000 O   0  0  0  0  0  0  0  0  0  0  0  0
    0.5770   -2.5619    0.0000 C   0  0  0  0  0  0  0  0  0  0  0  0
    0.3904   -3.3720    0.0000 O   0  0  0  0  0  0  0  0  0  0  0  0
    1.3717   -2.3359    0.0000 C   0  0  0  0  0  0  0  0  0  0  0  0
    1.7822   -1.6272    0.0000 C   0  0  0  0  0  0  0  0  0  0  0  0
    2.5728   -1.4069    0.0000 C   0  0  0  0  0  0  0  0  0  0  0  0
    3.1278   -2.0252    0.0000 C   0  0  0  0  0  0  0  0  0  0  0  0
    3.9434   -1.8550    0.0000 C   0  0  0  0  0  0  0  0  0  0  0  0
    4.1998   -1.0675    0.0000 C   0  0  0  0  0  0  0  0  0  0  0  0
    3.6420   -0.4498    0.0000 C   0  0  0  0  0  0  0  0  0  0  0  0
    2.8296   -0.6258    0.0000 C   0  0  0  0  0  0  0  0  0  0  0  0
    2.3290    0.0102    0.0000 C   0  0  0  0  0  0  0  0  0  0  0  0
    2.4827    0.7766    0.0000 C   0  0  0  0  0  0  0  0  0  0  0  0
    3.3532    0.9633    0.0000 C   0  0  0  0  0  0  0  0  0  0  0  0
    3.8960    1.7810    0.0000 C   0  0  0  0  0  0  0  0  0  0  0  0
    3.3386    2.4913    0.0000 C   0  0  0  0  0  0  0  0  0  0  0  0
    2.6711    2.0494    0.0000 C   0  0  0  0  0  0  0  0  0  0  0  0
    3.4986    1.5694    0.0000 O   0  0  0  0  0  0  0  0  0  0  0  0
    2.0757    1.4843    0.0000 C   0  0  0  0  0  0  0  0  0  0  0  0
    1.1965    1.4722    0.0000 C   0  0  0  0  0  0  0  0  0  0  0  0
    0.7014    2.1457    0.0000 O   0  0  0  0  0  0  0  0  0  0  0  0
   -0.0885    1.8898    0.0000 C   0  0  0  0  0  0  0  0  0  0  0  0
   -0.0878    1.0619    0.0000 C   0  0  0  0  0  0  0  0  0  0  0  0
    0.6984    0.8009    0.0000 N   0  0  0  0  0  0  0  0  0  0  0  0
   -0.6866    0.5062    0.0000 C   0  0  0  0  0  0  0  0  0  0  0  0
   -0.6832   -0.3145    0.0000 O   0  0  0  0  0  0  0  0  0  0  0  0
   -1.4340    0.8432    0.0000 C   0  0  0  0  0  0  0  0  0  0  0  0
   -2.1666    0.4690    0.0000 C   0  0  0  0  0  0  0  0  0  0  0  0
   -2.9546    0.7039    0.0000 C   0  0  0  0  0  0  0  0  0  0  0  0
   -3.6676    0.3059    0.0000 C   0  0  0  0  0  0  0  0  0  0  0  0
   -4.4333    0.5522    0.0000 C   0  0  0  0  0  0  0  0  0  0  0  0
   -5.0932    0.0980    0.0000 C   0  0  0  0  0  0  0  0  0  0  0  0
   -5.8451    0.4345    0.0000 C   0  0  0  0  0  0  0  0  0  0  0  0
   -6.5193   -0.0551    0.0000 C   0  0  0  0  0  0  0  0  0  0  0  0
   -6.4299   -0.8809    0.0000 C   0  0  0  0  0  0  0  0  0  0  0  0
   -5.6697   -1.2159    0.0000 C   0  0  0  0  0  0  0  0  0  0  0  0
   -4.9992   -0.7217    0.0000 C   0  0  0  0  0  0  0  0  0  0  0  0
  1  2  1  0  0  0  0
  2  3  2  0  0  0  0
  2  4  1  0  0  0  0
  4  5  1  0  0  0  0
  5  6  1  0  0  0  0
  6  7  1  0  0  0  0
  7  8  2  0  0  0  0
  8  9  1  0  0  0  0
  9 10  2  0  0  0  0
 10 11  1  0  0  0  0
  6 11  2  0  0  0  0
 11 12  1  0  0  0  0
 12 13  1  0  0  0  0
 13 14  1  0  0  0  0
 14 15  1  0  0  0  0
 15 16  1  0  0  0  0
 16 17  1  0  0  0  0
 17 18  1  0  0  0  0
 14 18  1  0  0  0  0
 17 19  1  0  0  0  0
 13 19  1  0  0  0  0
 19 20  1  0  0  0  0
 20 21  1  0  0  0  0
 21 22  1  0  0  0  0
 22 23  2  0  0  0  0
 23 24  1  0  0  0  0
 20 24  2  0  0  0  0
 23 25  1  0  0  0  0
 25 26  2  0  0  0  0
 25 27  1  0  0  0  0
 27 28  1  0  0  0  0
 28 29  1  0  0  0  0
 29 30  1  0  0  0  0
 30 31  1  0  0  0  0
 31 32  1  0  0  0  0
 32 33  1  0  0  0  0
 33 34  1  0  0  0  0
 34 35  1  0  0  0  0
 35 36  1  0  0  0  0
 36 37  1  0  0  0  0
 32 37  1  0  0  0  0
M  END
>  <Name>
CHEMBL31146

>  <Target_Uniprot>
P21731

>  <CHEMBL Canonical SMILES>
OC(=O)CCc1ccccc1CC2C3CCC(O3)C2c4occ(n4)C(=O)CCCCCC5CCCCC5

>  <PubMed ID>
8496908

$$$$

  Marvin  08031817322D          

 37 41  0  0  0  0            999 V2000
    0.9455   -3.7443    0.0000 C   0  0  0  0  0  0  0  0  0  0  0  0
    1.7660   -3.8305    0.0000 C   0  0  0  0  0  0  0  0  0  0  0  0
    2.1015   -4.5842    0.0000 C   0  0  0  0  0  0  0  0  0  0  0  0
    2.9220   -4.6704    0.0000 C   0  0  0  0  0  0  0  0  0  0  0  0
    3.4069   -4.0030    0.0000 C   0  0  0  0  0  0  0  0  0  0  0  0
    3.0714   -3.2493    0.0000 C   0  0  0  0  0  0  0  0  0  0  0  0
    3.5563   -2.5819    0.0000 C   0  0  0  0  0  0  0  0  0  0  0  0
    2.2509   -3.1631    0.0000 C   0  0  0  0  0  0  0  0  0  0  0  0
    1.9153   -2.4094    0.0000 C   0  0  0  0  0  0  0  0  0  0  0  0
    2.3278   -1.6949    0.0000 C   0  0  0  0  0  0  0  0  0  0  0  0
    3.1483   -1.6087    0.0000 O   0  0  0  0  0  0  0  0  0  0  0  0
    1.7758   -1.0819    0.0000 C   0  0  0  0  0  0  0  0  0  0  0  0
    1.0221   -1.4174    0.0000 C   0  0  0  0  0  0  0  0  0  0  0  0
    0.3076   -1.0049    0.0000 C   0  0  0  0  0  0  0  0  0  0  0  0
    0.3076   -0.1799    0.0000 C   0  0  0  0  0  0  0  0  0  0  0  0
    1.0221    0.2326    0.0000 C   0  0  0  0  0  0  0  0  0  0  0  0
    1.0221    1.0576    0.0000 C   0  0  0  0  0  0  0  0  0  0  0  0
    0.3076    1.4701    0.0000 C   0  0  0  0  0  0  0  0  0  0  0  0
   -0.4068    1.0576    0.0000 C   0  0  0  0  0  0  0  0  0  0  0  0
   -1.1213    1.4701    0.0000 C   0  0  0  0  0  0  0  0  0  0  0  0
   -1.8358    1.0576    0.0000 C   0  0  0  0  0  0  0  0  0  0  0  0
   -1.8358    0.2326    0.0000 C   0  0  0  0  0  0  0  0  0  0  0  0
   -1.1213   -0.1799    0.0000 C   0  0  0  0  0  0  0  0  0  0  0  0
   -0.4068    0.2326    0.0000 C   0  0  0  0  0  0  0  0  0  0  0  0
   -2.5502    1.4701    0.0000 N   0  0  0  0  0  0  0  0  0  0  0  0
   -2.5502    2.2951    0.0000 S   0  0  0  0  0  0  0  0  0  0  0  0
   -3.3752    2.2951    0.0000 O   0  0  0  0  0  0  0  0  0  0  0  0
   -1.7252    2.2951    0.0000 O   0  0  0  0  0  0  0  0  0  0  0  0
   -2.5502    3.1201    0.0000 C   0  0  0  0  0  0  0  0  0  0  0  0
   -1.8358    3.5326    0.0000 C   0  0  0  0  0  0  0  0  0  0  0  0
   -1.8358    4.3576    0.0000 C   0  0  0  0  0  0  0  0  0  0  0  0
   -2.5502    4.7701    0.0000 C   0  0  0  0  0  0  0  0  0  0  0  0
   -2.5502    5.5951    0.0000 Cl  0  0  0  0  0  0  0  0  0  0  0  0
   -3.2647    4.3576    0.0000 C   0  0  0  0  0  0  0  0  0  0  0  0
   -3.2647    3.5326    0.0000 C   0  0  0  0  0  0  0  0  0  0  0  0
    1.1083   -2.2379    0.0000 C   0  0  0  0  0  0  0  0  0  0  0  0
    0.4953   -2.7899    0.0000 O   0  0  0  0  0  0  0  0  0  0  0  0
  1  2  1  0  0  0  0
  2  3  1  0  0  0  0
  3  4  2  0  0  0  0
  4  5  1  0  0  0  0
  5  6  2  0  0  0  0
  6  7  1  0  0  0  0
  6  8  1  0  0  0  0
  2  8  2  0  0  0  0
  8  9  1  0  0  0  0
  9 10  2  0  0  0  0
 10 11  1  0  0  0  0
 10 12  1  0  0  0  0
 12 13  1  0  0  0  0
 13 14  1  0  0  0  0
 14 15  1  0  0  0  0
 15 16  1  0  0  0  0
 16 17  2  0  0  0  0
 17 18  1  0  0  0  0
 18 19  2  0  0  0  0
 19 20  1  0  0  0  0
 20 21  1  0  0  0  0
 21 22  1  0  0  0  0
 22 23  1  0  0  0  0
 23 24  1  0  0  0  0
 15 24  2  0  0  0  0
 19 24  1  0  0  0  0
 21 25  1  0  0  0  0
 25 26  1  0  0  0  0
 26 27  2  0  0  0  0
 26 28  2  0  0  0  0
 26 29  1  0  0  0  0
 29 30  1  0  0  0  0
 30 31  2  0  0  0  0
 31 32  1  0  0  0  0
 32 33  1  0  0  0  0
 32 34  2  0  0  0  0
 34 35  1  0  0  0  0
 29 35  2  0  0  0  0
 13 36  1  0  0  0  0
  9 36  1  0  0  0  0
 36 37  2  0  0  0  0
M  END
>  <Name>
CHEMBL3354618

>  <Target_Uniprot>
P21731

>  <CHEMBL Canonical SMILES>
Cc1cccc(C)c1C2=C(O)CC(Cc3cccc4CC(CCc34)NS(=O)(=O)c5ccc(Cl)cc5)C2=O

>  <PubMed ID>
25221659

$$$$
